
OS:Version,
  {307803c8-a362-4ee8-9e0b-ab83c12b6e7c}, !- Handle
  3.6.1;                                  !- Version Identifier

OS:Site,
  {eebf93c4-020a-4faa-bca1-09d39b94e586}, !- Handle
  JAKARTA-SOEKARNO-HA,                    !- Name
  -6.12,                                  !- Latitude {deg}
  106.65,                                 !- Longitude {deg}
  7,                                      !- Time Zone {hr}
  8,                                      !- Elevation {m}
  Suburbs;                                !- Terrain

OS:SimulationControl,
  {cdb99402-9b2b-4f5b-a5ac-39be6563eb24}, !- Handle
  Yes,                                    !- Do Zone Sizing Calculation
  Yes,                                    !- Do System Sizing Calculation
  Yes,                                    !- Do Plant Sizing Calculation
  No,                                     !- Run Simulation for Sizing Periods
  Yes,                                    !- Run Simulation for Weather File Run Periods
  0.04,                                   !- Loads Convergence Tolerance Value {W}
  0.4,                                    !- Temperature Convergence Tolerance Value {deltaC}
  FullExterior,                           !- Solar Distribution
  25,                                     !- Maximum Number of Warmup Days
  6,                                      !- Minimum Number of Warmup Days
  No;                                     !- Do HVAC Sizing Simulation for Sizing Periods

OS:Building,
  {529b9efa-d753-4b1d-b693-38fd4956815f}, !- Handle
  Building,                               !- Name
  ,                                       !- Building Sector Type
  0,                                      !- North Axis {deg}
  ,                                       !- Nominal Floor to Floor Height {m}
  ,                                       !- Space Type Name
  ,                                       !- Default Construction Set Name
  ;                                       !- Default Schedule Set Name

OS:ShadowCalculation,
  {d01d3f56-e68a-4a51-bb7d-ee57fe860fa2}, !- Handle
  PolygonClipping,                        !- Shading Calculation Method
  Periodic,                               !- Shading Calculation Update Frequency Method
  20,                                     !- Shading Calculation Update Frequency
  15000,                                  !- Maximum Figures in Shadow Overlap Calculations
  SutherlandHodgman,                      !- Polygon Clipping Algorithm
  512,                                    !- Pixel Counting Resolution
  SimpleSkyDiffuseModeling,               !- Sky Diffuse Modeling Algorithm
  No,                                     !- Output External Shading Calculation Results
  No,                                     !- Disable Self-Shading Within Shading Zone Groups
  No;                                     !- Disable Self-Shading From Shading Zone Groups to Other Zones

OS:HeatBalanceAlgorithm,
  {88c919ad-4840-45bd-bb63-9f18702de7dd}, !- Handle
  ConductionTransferFunction,             !- Algorithm
  2000,                                   !- Surface Temperature Upper Limit {C}
  1e-08,                                  !- Minimum Surface Convection Heat Transfer Coefficient Value {W/m2-K}
  1000;                                   !- Maximum Surface Convection Heat Transfer Coefficient Value {W/m2-K}

OS:Timestep,
  {bcabb5a7-d567-4c7d-93be-b2b3ba6268d4}, !- Handle
  6;                                      !- Number of Timesteps per Hour

OS:ConvergenceLimits,
  {52d805b2-9192-4a2d-b7d0-94a01d105ab5}, !- Handle
  1,                                      !- Minimum System Timestep {minutes}
  25;                                     !- Maximum HVAC Iterations

OS:RunPeriod,
  {027d70eb-6885-4172-a1e2-edb0dea8fd7d}, !- Handle
  IDN-Res (01-01:31-12),                  !- Name
  1,                                      !- Begin Month
  1,                                      !- Begin Day of Month
  12,                                     !- End Month
  31,                                     !- End Day of Month
  No,                                     !- Use Weather File Holidays and Special Days
  Yes,                                    !- Use Weather File Daylight Saving Period
  Yes,                                    !- Apply Weekend Holiday Rule
  Yes,                                    !- Use Weather File Rain Indicators
  Yes,                                    !- Use Weather File Snow Indicators
  ;                                       !- Number of Times Runperiod to be Repeated

OS:YearDescription,
  {faad8da5-8279-4063-b6fb-8ff6e763ed30}, !- Handle
  ,                                       !- Calendar Year
  Sunday,                                 !- Day of Week for Start Day
  ;                                       !- Is Leap Year

OS:RunPeriodControl:SpecialDays,
  {03b0d9fd-de27-44fa-94f0-5a960126a08a}, !- Handle
  New Years Day,                          !- Name
  1 Jan,                                  !- Start Date
  1,                                      !- Duration {days}
  Holiday;                                !- Special Day Type

OS:RunPeriodControl:SpecialDays,
  {c64a3442-1be2-477d-838f-2e665398400e}, !- Handle
  Christmas Day,                          !- Name
  25 Dec,                                 !- Start Date
  1,                                      !- Duration {days}
  Holiday;                                !- Special Day Type

OS:RunPeriodControl:SpecialDays,
  {31f0f053-4541-403d-8bf2-db7168cd9444}, !- Handle
  Boxing Day,                             !- Name
  26 Dec,                                 !- Start Date
  1,                                      !- Duration {days}
  Holiday;                                !- Special Day Type

OS:RunPeriodControl:SpecialDays,
  {3a6c35a5-ab0a-496b-8eaa-a70d12e04071}, !- Handle
  Easter Monday,                          !- Name
  2nd Monday in April,                    !- Start Date
  1,                                      !- Duration {days}
  Holiday;                                !- Special Day Type

OS:RunPeriodControl:SpecialDays,
  {85397cb2-4639-4f27-a05b-cf404a022bdf}, !- Handle
  Easter Sunday,                          !- Name
  1st Sunday in April,                    !- Start Date
  1,                                      !- Duration {days}
  Holiday;                                !- Special Day Type

OS:ScheduleTypeLimits,
  {eeaaecd5-9ec7-44f1-96b5-db6e93547eab}, !- Handle
  Schedule Type Limits 1;                 !- Name

OS:ScheduleTypeLimits,
  {471bda04-3d73-4b01-8f4d-96a50192efe7}, !- Handle
  Fraction 1,                             !- Name
  0,                                      !- Lower Limit Value
  1,                                      !- Upper Limit Value
  CONTINUOUS;                             !- Numeric Type

OS:ScheduleTypeLimits,
  {5a4c6a2c-6a7b-41ca-9014-13df0ff10e9e}, !- Handle
  Temperature,                            !- Name
  -60,                                    !- Lower Limit Value
  200,                                    !- Upper Limit Value
  CONTINUOUS,                             !- Numeric Type
  Temperature;                            !- Unit Type

OS:ScheduleTypeLimits,
  {26df541b-e3bd-4753-9c30-ec1376399807}, !- Handle
  Control Type,                           !- Name
  0,                                      !- Lower Limit Value
  4,                                      !- Upper Limit Value
  DISCRETE,                               !- Numeric Type
  ControlMode;                            !- Unit Type

OS:ScheduleTypeLimits,
  {8404a466-0fa4-478e-81c1-04ba54c7106b}, !- Handle
  On/Off,                                 !- Name
  0,                                      !- Lower Limit Value
  1,                                      !- Upper Limit Value
  DISCRETE,                               !- Numeric Type
  Availability;                           !- Unit Type

OS:ScheduleTypeLimits,
  {ecc12f6c-ca68-4ae6-af09-84f541f5a5f1}, !- Handle
  Schedule Type Limits 2;                 !- Name

OS:Schedule:Compact,
  {71918397-f746-4b38-a99e-93af6ba114d0}, !- Handle
  Off,                                    !- Name
  ,                                       !- Schedule Type Limits Name
  Through: 12/31,                         !- Field 1
  For: AllDays,                           !- Field 2
  Until: 24:00,                           !- Field 3
  0;                                      !- Field 4

OS:ScheduleTypeLimits,
  {5ce11c60-367b-4783-a784-6dcc282f8605}, !- Handle
  Schedule Type Limits 4;                 !- Name

OS:Schedule:Compact,
  {cdecc01e-68c5-4677-a20b-d90b22797bf8}, !- Handle
  Work efficiency,                        !- Name
  {04c3b98d-d1f6-4a69-8940-b0811124439b}, !- Schedule Type Limits Name
  Through: 12/31,                         !- Field 1
  For: AllDays,                           !- Field 2
  Until: 24:00,                           !- Field 3
  0;                                      !- Field 4

OS:Schedule:Compact,
  {7dbb02f5-b893-4694-ba0a-c18f1283f451}, !- Handle
  cooling_sch,                            !- Name
  {5a4c6a2c-6a7b-41ca-9014-13df0ff10e9e}, !- Schedule Type Limits Name
  Through: 12/31,                         !- Field 1
  For: SummerDesignDay,                   !- Field 2
  Until: 24:00,                           !- Field 3
  25,                                     !- Field 4
  For: AllOtherDays,                      !- Field 5
  Until: 5:30,                            !- Field 6
  25,                                     !- Field 7
  Until: 21:00,                           !- Field 8
  30,                                     !- Field 9
  Until: 24:00,                           !- Field 10
  25;                                     !- Field 11

OS:Schedule:Compact,
  {cef95d95-8f13-467d-a16b-f75e9ddc5931}, !- Handle
  heating_sch,                            !- Name
  {5a4c6a2c-6a7b-41ca-9014-13df0ff10e9e}, !- Schedule Type Limits Name
  Through: 12/31,                         !- Field 1
  For: AllDays,                           !- Field 2
  Until: 24:00,                           !- Field 3
  -50;                                    !- Field 4

OS:ScheduleTypeLimits,
  {edea3759-de6a-4a8b-b9ac-f198e2d3c384}, !- Handle
  OnOff 1,                                !- Name
  0,                                      !- Lower Limit Value
  1,                                      !- Upper Limit Value
  Discrete,                               !- Numeric Type
  Availability;                           !- Unit Type

OS:Schedule:Compact,
  {b8cbd672-4d68-44a3-9ea5-6c8ad51d3156}, !- Handle
  heating_avail_sch,                      !- Name
  {edea3759-de6a-4a8b-b9ac-f198e2d3c384}, !- Schedule Type Limits Name
  Through: 12/31,                         !- Field 1
  For: AllDays,                           !- Field 2
  Until: 24:00,                           !- Field 3
  0;                                      !- Field 4

OS:Schedule:Compact,
  {1270a969-398f-4f7a-9c4e-72b327457029}, !- Handle
  cooling_avail_sch,                      !- Name
  {edea3759-de6a-4a8b-b9ac-f198e2d3c384}, !- Schedule Type Limits Name
  Through: 12/31,                         !- Field 1
  For: AllDays,                           !- Field 2
  Until: 24:00,                           !- Field 3
  1;                                      !- Field 4

OS:ScheduleTypeLimits,
  {a7549c9c-e5ff-4105-bb24-2f07e5a210b1}, !- Handle
  Schedule Type Limits 5;                 !- Name

OS:Schedule:Compact,
  {7d4c545e-2285-408c-ae68-570faff18e78}, !- Handle
  OpaqueShade,                            !- Name
  ,                                       !- Schedule Type Limits Name
  Through: 12/31,                         !- Field 1
  For: AllDays,                           !- Field 2
  Until: 24:00,                           !- Field 3
  0;                                      !- Field 4

OS:ScheduleTypeLimits,
  {838ee375-2b7b-462d-9157-e44372b70d10}, !- Handle
  Schedule Type Limits 6;                 !- Name

OS:Schedule:Compact,
  {769dca76-a927-4088-936f-304984c945d4}, !- Handle
  Zone Comfort Control Type Sched,        !- Name
  {26df541b-e3bd-4753-9c30-ec1376399807}, !- Schedule Type Limits Name
  Through: 12/31,                         !- Field 1
  For: AllDays,                           !- Field 2
  Until: 24:00,                           !- Field 3
  4;                                      !- Field 4

OS:Schedule:Compact,
  {f088a4a0-c2c7-4b37-8e7d-b0f0ea9f29e6}, !- Handle
  Design Days Only,                       !- Name
  ,                                       !- Schedule Type Limits Name
  Through: 12/31,                         !- Field 1
  For: SummerDesignDay WinterDesignDay,   !- Field 2
  Until: 24:00,                           !- Field 3
  1,                                      !- Field 4
  For: AllOtherDays,                      !- Field 5
  Until: 24:00,                           !- Field 6
  0;                                      !- Field 7

OS:ScheduleTypeLimits,
  {e880d949-1e0f-4961-b1de-5c0212c52c78}, !- Handle
  Schedule Type Limits 7;                 !- Name

OS:Schedule:Compact,
  {3035143a-e30c-499b-9f03-c2907c1bbaf4}, !- Handle
  TypOperativeTempControlSch,             !- Name
  {5a4c6a2c-6a7b-41ca-9014-13df0ff10e9e}, !- Schedule Type Limits Name
  Through: 31 Dec,                        !- Field 1
  For: SummerDesignDay WinterDesignDay,   !- Field 2
  Until: 24:00,                           !- Field 3
  0.0,                                    !- Field 4
  For: AllOtherDays,                      !- Field 5
  Until: 24:00,                           !- Field 6
  0.5;                                    !- Field 7

OS:Schedule:Compact,
  {bbd6ca00-32a6-4e2e-826a-66474b6fa2e4}, !- Handle
  OnWinterDesignDay,                      !- Name
  ,                                       !- Schedule Type Limits Name
  Through: 12/31,                         !- Field 1
  For: WinterDesignDay,                   !- Field 2
  Until: 24:00,                           !- Field 3
  1,                                      !- Field 4
  For: AllOtherDays,                      !- Field 5
  Until: 24:00,                           !- Field 6
  0;                                      !- Field 7

OS:ScheduleTypeLimits,
  {e75e2487-2370-4420-89d2-929eb551154f}, !- Handle
  Schedule Type Limits 8;                 !- Name

OS:Schedule:Compact,
  {ed214d19-eb1b-406a-aff4-f887f8ad1955}, !- Handle
  OnSummerDesignDay,                      !- Name
  ,                                       !- Schedule Type Limits Name
  Through: 12/31,                         !- Field 1
  For: SummerDesignDay,                   !- Field 2
  Until: 24:00,                           !- Field 3
  1,                                      !- Field 4
  For: AllOtherDays,                      !- Field 5
  Until: 24:00,                           !- Field 6
  0;                                      !- Field 7

OS:ScheduleTypeLimits,
  {bc08e579-15d6-4211-87d8-03bafdf372d4}, !- Handle
  Schedule Type Limits 9;                 !- Name

OS:Schedule:Compact,
  {a1fd8fa4-f739-409c-bbb4-b5e6f2b2b20d}, !- Handle
  2,                                      !- Name
  {80bf2acf-140c-4a95-b2d4-bd3592eae4ec}, !- Schedule Type Limits Name
  Through: 12/31,                         !- Field 1
  For: AllDays,                           !- Field 2
  Until: 24:00,                           !- Field 3
  1;                                      !- Field 4

OS:ScheduleTypeLimits,
  {dd155bf2-22e0-4125-abf5-2a1892d662ad}, !- Handle
  Schedule Type Limits 10;                !- Name

OS:Schedule:Compact,
  {9881cca7-d77c-4aa4-8ca1-8096aa8775dc}, !- Handle
  8060,                                   !- Name
  {4fa5b232-4ee1-4a07-834d-c31ed10c24b0}, !- Schedule Type Limits Name
  Through: 12/31,                         !- Field 1
  For: AllDays,                           !- Field 2
  Until: 24:00,                           !- Field 3
  0.1370;                                 !- Field 4

OS:ScheduleTypeLimits,
  {de871eab-b7f7-4ee0-a427-af148cceb9dc}, !- Handle
  Schedule Type Limits 11;                !- Name

OS:Schedule:Compact,
  {1093f16c-9ae3-490b-a9b9-02f3291c699b}, !- Handle
  Activity Schedule Kitchen,              !- Name
  {094eae50-f78c-4d1c-a122-22697e49bc2c}, !- Schedule Type Limits Name
  Through: 12/31,                         !- Field 1
  For: AllDays,                           !- Field 2
  Until: 24:00,                           !- Field 3
  117;                                    !- Field 4

OS:ScheduleTypeLimits,
  {356fa169-e1b1-4d48-b902-5e0acb8a28a9}, !- Handle
  Schedule Type Limits 12;                !- Name

OS:Schedule:Compact,
  {5bd5bf7b-4c27-4892-a311-1cb59d0f5a85}, !- Handle
  Clothing Schedule Kitchen,              !- Name
  {9f78c13c-a29b-402a-8bcd-2a62570faa51}, !- Schedule Type Limits Name
  Through: 4/1,                           !- Field 1
  For: AllDays,                           !- Field 2
  Until: 24:00,                           !- Field 3
  .5,                                     !- Field 4
  Through: 9/30,                          !- Field 5
  For: AllDays,                           !- Field 6
  Until: 24:00,                           !- Field 7
  1,                                      !- Field 8
  Through: 12/31,                         !- Field 9
  For: AllDays,                           !- Field 10
  Until: 24:00,                           !- Field 11
  .5;                                     !- Field 12

OS:ScheduleTypeLimits,
  {eb680892-097b-465d-8e78-e0fc112c9fd2}, !- Handle
  Schedule Type Limits 13;                !- Name

OS:Schedule:Compact,
  {d23f4fd4-4f3e-4aa4-ab29-625c28206097}, !- Handle
  Activity Schedule Bath,                 !- Name
  {094eae50-f78c-4d1c-a122-22697e49bc2c}, !- Schedule Type Limits Name
  Through: 12/31,                         !- Field 1
  For: AllDays,                           !- Field 2
  Until: 24:00,                           !- Field 3
  108;                                    !- Field 4

OS:ScheduleTypeLimits,
  {f0126e77-5e3a-4be9-b143-cf05b50fcafd}, !- Handle
  Schedule Type Limits 14;                !- Name

OS:Schedule:Compact,
  {0e93d9fd-c007-487e-a5e8-3d3fb458ec2a}, !- Handle
  Clothing Schedule Bath,                 !- Name
  {9f78c13c-a29b-402a-8bcd-2a62570faa51}, !- Schedule Type Limits Name
  Through: 4/1,                           !- Field 1
  For: AllDays,                           !- Field 2
  Until: 24:00,                           !- Field 3
  .5,                                     !- Field 4
  Through: 9/30,                          !- Field 5
  For: AllDays,                           !- Field 6
  Until: 24:00,                           !- Field 7
  1,                                      !- Field 8
  Through: 12/31,                         !- Field 9
  For: AllDays,                           !- Field 10
  Until: 24:00,                           !- Field 11
  .5;                                     !- Field 12

OS:ScheduleTypeLimits,
  {0e040407-5d14-4b86-870c-2c6562c59c5f}, !- Handle
  Schedule Type Limits 15;                !- Name

OS:Schedule:Compact,
  {79c44d9f-30e2-4b57-80d8-a3b4ca2f90f8}, !- Handle
  Activity Schedule Bedroom,              !- Name
  {094eae50-f78c-4d1c-a122-22697e49bc2c}, !- Schedule Type Limits Name
  Through: 12/31,                         !- Field 1
  For: AllDays,                           !- Field 2
  Until: 24:00,                           !- Field 3
  72;                                     !- Field 4

OS:ScheduleTypeLimits,
  {35d955d4-9c14-4ee9-adab-2f5804d57385}, !- Handle
  Schedule Type Limits 16;                !- Name

OS:Schedule:Compact,
  {cc7dfb8e-b6dd-40bc-a459-fa7a26c9d3c3}, !- Handle
  Clothing Schedule Bedroom,              !- Name
  {9f78c13c-a29b-402a-8bcd-2a62570faa51}, !- Schedule Type Limits Name
  Through: 4/1,                           !- Field 1
  For: AllDays,                           !- Field 2
  Until: 24:00,                           !- Field 3
  .5,                                     !- Field 4
  Through: 9/30,                          !- Field 5
  For: AllDays,                           !- Field 6
  Until: 24:00,                           !- Field 7
  1,                                      !- Field 8
  Through: 12/31,                         !- Field 9
  For: AllDays,                           !- Field 10
  Until: 24:00,                           !- Field 11
  .5;                                     !- Field 12

OS:ScheduleTypeLimits,
  {47a0de4b-dcd8-427e-8824-c3d56a4c712c}, !- Handle
  Schedule Type Limits 18;                !- Name

OS:ScheduleTypeLimits,
  {169bbb1a-0fb9-4032-8f1f-428ae6143665}, !- Handle
  Schedule Type Limits 19;                !- Name

OS:Schedule:Compact,
  {f2f9e07b-5cec-4373-8daf-fd55fe207f2c}, !- Handle
  Activity Schedule LivingRoom,           !- Name
  {094eae50-f78c-4d1c-a122-22697e49bc2c}, !- Schedule Type Limits Name
  Through: 12/31,                         !- Field 1
  For: AllDays,                           !- Field 2
  Until: 24:00,                           !- Field 3
  110;                                    !- Field 4

OS:ScheduleTypeLimits,
  {1533adea-7ef5-4976-b889-a666c9fc33a3}, !- Handle
  Schedule Type Limits 20;                !- Name

OS:Schedule:Compact,
  {3eaa661d-8a02-44d0-9518-3837edd5fa56}, !- Handle
  Clothing Schedule LivingRoom,           !- Name
  {9f78c13c-a29b-402a-8bcd-2a62570faa51}, !- Schedule Type Limits Name
  Through: 4/1,                           !- Field 1
  For: AllDays,                           !- Field 2
  Until: 24:00,                           !- Field 3
  .5,                                     !- Field 4
  Through: 9/30,                          !- Field 5
  For: AllDays,                           !- Field 6
  Until: 24:00,                           !- Field 7
  1,                                      !- Field 8
  Through: 12/31,                         !- Field 9
  For: AllDays,                           !- Field 10
  Until: 24:00,                           !- Field 11
  .5;                                     !- Field 12

OS:Schedule:Compact,
  {50b7c1a0-44d0-4a0d-85a7-dd5e30db13a0}, !- Handle
  Air Velocity Bedroom,                   !- Name
  ,                                       !- Schedule Type Limits Name
  Through: 12/31,                         !- Field 1
  For: AllDays,                           !- Field 2
  Until: 24:00,                           !- Field 3
  0.1370;                                 !- Field 4

OS:Schedule:Compact,
  {73f18375-21c2-4325-b9c8-35755bda75c9}, !- Handle
  Air Velocity LivingRoom,                !- Name
  ,                                       !- Schedule Type Limits Name
  Through: 12/31,                         !- Field 1
  For: AllDays,                           !- Field 2
  Until: 24:00,                           !- Field 3
  0.1370;                                 !- Field 4

OS:Schedule:Compact,
  {afce56ba-8ce7-4489-b607-77b334a5b5f2}, !- Handle
  Air Velocity Others,                    !- Name
  ,                                       !- Schedule Type Limits Name
  Through: 12/31,                         !- Field 1
  For: AllDays,                           !- Field 2
  Until: 24:00,                           !- Field 3
  0.1370;                                 !- Field 4

OS:ScheduleTypeLimits,
  {5356be30-4000-4d33-be03-dac14c534d4e}, !- Handle
  Schedule Type Limits 21;                !- Name

OS:ScheduleTypeLimits,
  {03c761ee-66ba-4746-90e6-4b4e91007eeb}, !- Handle
  Schedule Type Limits 22;                !- Name

OS:ScheduleTypeLimits,
  {05bfe180-aff7-43f0-a490-9dd46f90b158}, !- Handle
  Schedule Type Limits 23;                !- Name

OS:Schedule:Compact,
  {90ebc654-b86a-474c-afa6-a0a2628c0f13}, !- Handle
  Activity Schedule 563,                  !- Name
  {094eae50-f78c-4d1c-a122-22697e49bc2c}, !- Schedule Type Limits Name
  Through: 12/31,                         !- Field 1
  For: AllDays,                           !- Field 2
  Until: 24:00,                           !- Field 3
  117;                                    !- Field 4

OS:ScheduleTypeLimits,
  {17adae41-f0c3-4dd5-b576-31eb21fecc06}, !- Handle
  Schedule Type Limits 24;                !- Name

OS:ScheduleTypeLimits,
  {e27eac4c-caa8-4006-8b24-0a4a934e86d7}, !- Handle
  Schedule Type Limits 25;                !- Name

OS:ScheduleTypeLimits,
  {366e21e7-1a11-45ed-9f19-eb05c3a6b2cf}, !- Handle
  Fraction,                               !- Name
  0,                                      !- Lower Limit Value
  1,                                      !- Upper Limit Value
  CONTINUOUS;                             !- Numeric Type

OS:Schedule:Compact,
  {54c6d131-e9e4-4115-9f6c-9e7bcac11038}, !- Handle
  Occ-Sch-Bedroom,                        !- Name
  {366e21e7-1a11-45ed-9f19-eb05c3a6b2cf}, !- Schedule Type Limits Name
  Through: 31 Dec,                        !- Field 1
  For: Weekdays,                          !- Field 2
  Until: 05:00,                           !- Field 3
  1.00,                                   !- Field 4
  Until: 06:00,                           !- Field 5
  0.80,                                   !- Field 6
  Until: 08:00,                           !- Field 7
  0.75,                                   !- Field 8
  Until: 09:00,                           !- Field 9
  0.50,                                   !- Field 10
  Until: 15:00,                           !- Field 11
  0.43,                                   !- Field 12
  Until: 18:00,                           !- Field 13
  0.50,                                   !- Field 14
  Until: 21:00,                           !- Field 15
  0.75,                                   !- Field 16
  Until: 24:00,                           !- Field 17
  0.80,                                   !- Field 18
  For: Saturday,                          !- Field 19
  Until: 07:00,                           !- Field 20
  1.00,                                   !- Field 21
  Until: 08:00,                           !- Field 22
  0.80,                                   !- Field 23
  Until: 09:00,                           !- Field 24
  0.75,                                   !- Field 25
  Until: 10:00,                           !- Field 26
  0.50,                                   !- Field 27
  Until: 15:00,                           !- Field 28
  0.43,                                   !- Field 29
  Until: 18:00,                           !- Field 30
  0.50,                                   !- Field 31
  Until: 21:00,                           !- Field 32
  0.75,                                   !- Field 33
  Until: 24:00,                           !- Field 34
  0.80,                                   !- Field 35
  For: Sunday Holidays,                   !- Field 36
  Until: 07:00,                           !- Field 37
  1.00,                                   !- Field 38
  Until: 08:00,                           !- Field 39
  0.80,                                   !- Field 40
  Until: 09:00,                           !- Field 41
  0.75,                                   !- Field 42
  Until: 10:00,                           !- Field 43
  0.50,                                   !- Field 44
  Until: 15:00,                           !- Field 45
  0.43,                                   !- Field 46
  Until: 18:00,                           !- Field 47
  0.50,                                   !- Field 48
  Until: 21:00,                           !- Field 49
  0.75,                                   !- Field 50
  Until: 24:00,                           !- Field 51
  0.80,                                   !- Field 52
  For: SummerDesignDay,                   !- Field 53
  Until: 24:00,                           !- Field 54
  1,                                      !- Field 55
  For: AllOtherDays,                      !- Field 56
  Until: 24:00,                           !- Field 57
  0;                                      !- Field 58

OS:Schedule:Compact,
  {a98cc670-dd70-4ab9-8a7f-848cffa0869a}, !- Handle
  Occ-Sch-LivingRoom,                     !- Name
  {366e21e7-1a11-45ed-9f19-eb05c3a6b2cf}, !- Schedule Type Limits Name
  Through: 31 Dec,                        !- Field 1
  For: Weekdays SummerDesignDay,          !- Field 2
  Until: 07:00,                           !- Field 3
  0,                                      !- Field 4
  Until: 09:00,                           !- Field 5
  0.5,                                    !- Field 6
  Until: 18:00,                           !- Field 7
  0,                                      !- Field 8
  Until: 20:00,                           !- Field 9
  0.5,                                    !- Field 10
  Until: 24:00,                           !- Field 11
  0,                                      !- Field 12
  For: Weekends,                          !- Field 13
  Until: 09:00,                           !- Field 14
  0,                                      !- Field 15
  Until: 11:00,                           !- Field 16
  0.5,                                    !- Field 17
  Until: 13:00,                           !- Field 18
  0,                                      !- Field 19
  Until: 14:00,                           !- Field 20
  0.5,                                    !- Field 21
  Until: 18:00,                           !- Field 22
  0,                                      !- Field 23
  Until: 21:00,                           !- Field 24
  0.5,                                    !- Field 25
  Until: 24:00,                           !- Field 26
  0,                                      !- Field 27
  For: Holidays,                          !- Field 28
  Until: 24:00,                           !- Field 29
  0,                                      !- Field 30
  For: WinterDesignDay AllOtherDays,      !- Field 31
  Until: 24:00,                           !- Field 32
  0;                                      !- Field 33

OS:Schedule:Compact,