
Version,
  23.1;                                   !- Version Identifier

Timestep,
  4;                                      !- Number of Timesteps per Hour

LifeCycleCost:Parameters,
  Life Cycle Cost Parameters,             !- Name
  EndOfYear,                              !- Discounting Convention
  ConstantDollar,                         !- Inflation Approach
  0.03,                                   !- Real Discount Rate
  ,                                       !- Nominal Discount Rate
  ,                                       !- Inflation
  ,                                       !- Base Date Month
  2011,                                   !- Base Date Year
  ,                                       !- Service Date Month
  2011,                                   !- Service Date Year
  25,                                     !- Length of Study Period in Years
  ,                                       !- Tax rate
  None;                                   !- Depreciation Method

LifeCycleCost:UsePriceEscalation,
  U.S. Avg  Commercial-Electricity,       !- Name
  Electricity,                            !- Resource
  2011,                                   !- Escalation Start Year
  January,                                !- Escalation Start Month
  0.9838,                                 !- Year Escalation 1
  0.9730,                                 !- Year Escalation 2
  0.9632,                                 !- Year Escalation 3
  0.9611,                                 !- Year Escalation 4
  0.9571,                                 !- Year Escalation 5
  0.9553,                                 !- Year Escalation 6
  0.9539,                                 !- Year Escalation 7
  0.9521,                                 !- Year Escalation 8
  0.9546,                                 !- Year Escalation 9
  0.9550,                                 !- Year Escalation 10
  0.9553,                                 !- Year Escalation 11
  0.9564,                                 !- Year Escalation 12
  0.9575,                                 !- Year Escalation 13
  0.9596,                                 !- Year Escalation 14
  0.9618,                                 !- Year Escalation 15
  0.9614,                                 !- Year Escalation 16
  0.9618,                                 !- Year Escalation 17
  0.9618,                                 !- Year Escalation 18
  0.9593,                                 !- Year Escalation 19
  0.9589,                                 !- Year Escalation 20
  0.9607,                                 !- Year Escalation 21
  0.9625,                                 !- Year Escalation 22
  0.9650,                                 !- Year Escalation 23
  0.9708,                                 !- Year Escalation 24
  0.9751,                                 !- Year Escalation 25
  0.9762,                                 !- Year Escalation 26
  0.9766,                                 !- Year Escalation 27
  0.9766,                                 !- Year Escalation 28
  0.9769,                                 !- Year Escalation 29
  0.9773;                                 !- Year Escalation 30

LifeCycleCost:UsePriceEscalation,
  U.S. Avg  Commercial-Distillate Oil,    !- Name
  FuelOilNo1,                             !- Resource
  2011,                                   !- Escalation Start Year
  January,                                !- Escalation Start Month
  0.9714,                                 !- Year Escalation 1
  0.9730,                                 !- Year Escalation 2
  0.9942,                                 !- Year Escalation 3
  1.0164,                                 !- Year Escalation 4
  1.0541,                                 !- Year Escalation 5
  1.0928,                                 !- Year Escalation 6
  1.1267,                                 !- Year Escalation 7
  1.1580,                                 !- Year Escalation 8
  1.1792,                                 !- Year Escalation 9
  1.1967,                                 !- Year Escalation 10
  1.2200,                                 !- Year Escalation 11
  1.2333,                                 !- Year Escalation 12
  1.2566,                                 !- Year Escalation 13
  1.2709,                                 !- Year Escalation 14
  1.2826,                                 !- Year Escalation 15
  1.2985,                                 !- Year Escalation 16
  1.3102,                                 !- Year Escalation 17
  1.3250,                                 !- Year Escalation 18
  1.3261,                                 !- Year Escalation 19
  1.3282,                                 !- Year Escalation 20
  1.3324,                                 !- Year Escalation 21
  1.3356,                                 !- Year Escalation 22
  1.3431,                                 !- Year Escalation 23
  1.3510,                                 !- Year Escalation 24
  1.3568,                                 !- Year Escalation 25
  1.3606,                                 !- Year Escalation 26
  1.3637,                                 !- Year Escalation 27
  1.3674,                                 !- Year Escalation 28
  1.3706,                                 !- Year Escalation 29
  1.3743;                                 !- Year Escalation 30

LifeCycleCost:UsePriceEscalation,
  U.S. Avg  Commercial-Residual Oil,      !- Name
  FuelOilNo2,                             !- Resource
  2011,                                   !- Escalation Start Year
  January,                                !- Escalation Start Month
  0.8469,                                 !- Year Escalation 1
  0.8257,                                 !- Year Escalation 2
  0.8681,                                 !- Year Escalation 3
  0.8988,                                 !- Year Escalation 4
  0.9289,                                 !- Year Escalation 5
  0.9604,                                 !- Year Escalation 6
  0.9897,                                 !- Year Escalation 7
  1.0075,                                 !- Year Escalation 8
  1.0314,                                 !- Year Escalation 9
  1.0554,                                 !- Year Escalation 10
  1.0861,                                 !- Year Escalation 11
  1.1278,                                 !- Year Escalation 12
  1.1497,                                 !- Year Escalation 13
  1.1620,                                 !- Year Escalation 14
  1.1743,                                 !- Year Escalation 15
  1.1852,                                 !- Year Escalation 16
  1.1948,                                 !- Year Escalation 17
  1.2037,                                 !- Year Escalation 18
  1.2071,                                 !- Year Escalation 19
  1.2119,                                 !- Year Escalation 20
  1.2139,                                 !- Year Escalation 21
  1.2194,                                 !- Year Escalation 22
  1.2276,                                 !- Year Escalation 23
  1.2365,                                 !- Year Escalation 24
  1.2420,                                 !- Year Escalation 25
  1.2461,                                 !- Year Escalation 26
  1.2509,                                 !- Year Escalation 27
  1.2550,                                 !- Year Escalation 28
  1.2591,                                 !- Year Escalation 29
  1.2638;                                 !- Year Escalation 30

LifeCycleCost:UsePriceEscalation,
  U.S. Avg  Commercial-Natural gas,       !- Name
  NaturalGas,                             !- Resource
  2011,                                   !- Escalation Start Year
  January,                                !- Escalation Start Month
  0.9823,                                 !- Year Escalation 1
  0.9557,                                 !- Year Escalation 2
  0.9279,                                 !- Year Escalation 3
  0.9257,                                 !- Year Escalation 4
  0.9346,                                 !- Year Escalation 5
  0.9412,                                 !- Year Escalation 6
  0.9512,                                 !- Year Escalation 7
  0.9645,                                 !- Year Escalation 8
  0.9856,                                 !- Year Escalation 9
  1.0067,                                 !- Year Escalation 10
  1.0222,                                 !- Year Escalation 11
  1.0410,                                 !- Year Escalation 12
  1.0610,                                 !- Year Escalation 13
  1.0787,                                 !- Year Escalation 14
  1.0942,                                 !- Year Escalation 15
  1.1098,                                 !- Year Escalation 16
  1.1220,                                 !- Year Escalation 17
  1.1308,                                 !- Year Escalation 18
  1.1386,                                 !- Year Escalation 19
  1.1486,                                 !- Year Escalation 20
  1.1619,                                 !- Year Escalation 21
  1.1763,                                 !- Year Escalation 22
  1.1918,                                 !- Year Escalation 23
  1.2118,                                 !- Year Escalation 24
  1.2284,                                 !- Year Escalation 25
  1.2439,                                 !- Year Escalation 26
  1.2605,                                 !- Year Escalation 27
  1.2772,                                 !- Year Escalation 28
  1.2938,                                 !- Year Escalation 29
  1.3115;                                 !- Year Escalation 30

LifeCycleCost:UsePriceEscalation,
  U.S. Avg  Commercial-Coal,              !- Name
  Coal,                                   !- Resource
  2011,                                   !- Escalation Start Year
  January,                                !- Escalation Start Month
  0.9970,                                 !- Year Escalation 1
  1.0089,                                 !- Year Escalation 2
  1.0089,                                 !- Year Escalation 3
  0.9941,                                 !- Year Escalation 4
  0.9941,                                 !- Year Escalation 5
  1.0000,                                 !- Year Escalation 6
  1.0030,                                 !- Year Escalation 7
  1.0059,                                 !- Year Escalation 8
  1.0089,                                 !- Year Escalation 9
  1.0119,                                 !- Year Escalation 10
  1.0148,                                 !- Year Escalation 11
  1.0178,                                 !- Year Escalation 12
  1.0208,                                 !- Year Escalation 13
  1.0267,                                 !- Year Escalation 14
  1.0297,                                 !- Year Escalation 15
  1.0356,                                 !- Year Escalation 16
  1.0415,                                 !- Year Escalation 17
  1.0534,                                 !- Year Escalation 18
  1.0564,                                 !- Year Escalation 19
  1.0593,                                 !- Year Escalation 20
  1.0653,                                 !- Year Escalation 21
  1.0712,                                 !- Year Escalation 22
  1.0742,                                 !- Year Escalation 23
  1.0801,                                 !- Year Escalation 24
  1.0831,                                 !- Year Escalation 25
  1.0831,                                 !- Year Escalation 26
  1.0861,                                 !- Year Escalation 27
  1.0890,                                 !- Year Escalation 28
  1.0920,                                 !- Year Escalation 29
  1.0950;                                 !- Year Escalation 30

Building,
  Building,                               !- Name
  0,                                      !- North Axis {deg}
  Suburbs,                                !- Terrain
  0.04,                                   !- Loads Convergence Tolerance Value {W}
  0.4,                                    !- Temperature Convergence Tolerance Value {deltaC}
  FullInteriorAndExteriorWithReflections, !- Solar Distribution
  25,                                     !- Maximum Number of Warmup Days
  6;                                      !- Minimum Number of Warmup Days

Shading:Building:Detailed,
  Emerald Garden Tipe 150 - Component block 1 - Surface 1 (47), !- Name
  Transmittance schedule for Emerald Garden Tipe 150 - Component block 1, !- Transmittance Schedule Name
  ,                                       !- Number of Vertices
  -1.99715356, -3.9246821878, 3.8390422339, !- X,Y,Z Vertex 1 {m}
  -1.99715356, -3.9246821878, 3.6845036722, !- X,Y,Z Vertex 2 {m}
  -1.99715356, -2.5278153, 3.6845036722,  !- X,Y,Z Vertex 3 {m}
  -1.99715356, -2.5278153, 3.8390422339;  !- X,Y,Z Vertex 4 {m}

Shading:Building:Detailed,
  Emerald Garden Tipe 150 - Component block 1 - Surface 2 (48), !- Name
  Transmittance schedule for Emerald Garden Tipe 150 - Component block 1, !- Transmittance Schedule Name
  ,                                       !- Number of Vertices
  -2.1482187044, -2.5278153, 3.8390422339, !- X,Y,Z Vertex 1 {m}
  -2.1482187044, -2.5278153, 3.6845036722, !- X,Y,Z Vertex 2 {m}
  -2.1482187044, -3.9246821878, 3.6845036722, !- X,Y,Z Vertex 3 {m}
  -2.1482187044, -3.9246821878, 3.8390422339; !- X,Y,Z Vertex 4 {m}

Shading:Building:Detailed,
  Emerald Garden Tipe 150 - Component block 1 - Surface 3 (49), !- Name
  Transmittance schedule for Emerald Garden Tipe 150 - Component block 1, !- Transmittance Schedule Name
  ,                                       !- Number of Vertices
  -1.99715356, -3.9246821878, 3.8390422339, !- X,Y,Z Vertex 1 {m}
  -1.99715356, -2.5278153, 3.8390422339,  !- X,Y,Z Vertex 2 {m}
  -2.1482187044, -2.5278153, 3.8390422339, !- X,Y,Z Vertex 3 {m}
  -2.1482187044, -3.9246821878, 3.8390422339; !- X,Y,Z Vertex 4 {m}

Shading:Building:Detailed,
  Emerald Garden Tipe 150 - Component block 1 - Surface 5 (50), !- Name
  Transmittance schedule for Emerald Garden Tipe 150 - Component block 1, !- Transmittance Schedule Name
  ,                                       !- Number of Vertices
  -1.99715356, -2.5278153, 3.6845036722,  !- X,Y,Z Vertex 1 {m}
  -1.99715356, -3.9246821878, 3.6845036722, !- X,Y,Z Vertex 2 {m}
  -2.1482187044, -3.9246821878, 3.6845036722, !- X,Y,Z Vertex 3 {m}
  -2.1482187044, -2.5278153, 3.6845036722; !- X,Y,Z Vertex 4 {m}

Shading:Building:Detailed,
  Emerald Garden Tipe 150 - Component block 10 - Surface 1 (7), !- Name
  Transmittance schedule for Emerald Garden Tipe 150 - Component block 10, !- Transmittance Schedule Name
  ,                                       !- Number of Vertices
  1.85284644, -3.77483763, 3.8390422339,  !- X,Y,Z Vertex 1 {m}
  1.85284644, -3.77483763, 3.6845036722,  !- X,Y,Z Vertex 2 {m}
  -1.99715356, -3.77483763, 3.6845036722, !- X,Y,Z Vertex 3 {m}
  -1.99715356, -3.77483763, 3.8390422339; !- X,Y,Z Vertex 4 {m}

Shading:Building:Detailed,
  Emerald Garden Tipe 150 - Component block 10 - Surface 2 (8), !- Name
  Transmittance schedule for Emerald Garden Tipe 150 - Component block 10, !- Transmittance Schedule Name
  ,                                       !- Number of Vertices
  -1.99715356, -3.9246821878, 3.8390422339, !- X,Y,Z Vertex 1 {m}
  -1.99715356, -3.9246821878, 3.6845036722, !- X,Y,Z Vertex 2 {m}
  1.85284644, -3.9246821878, 3.6845036722, !- X,Y,Z Vertex 3 {m}
  1.85284644, -3.9246821878, 3.8390422339; !- X,Y,Z Vertex 4 {m}

Shading:Building:Detailed,
  Emerald Garden Tipe 150 - Component block 10 - Surface 4 (9), !- Name
  Transmittance schedule for Emerald Garden Tipe 150 - Component block 10, !- Transmittance Schedule Name
  ,                                       !- Number of Vertices
  1.85284644, -3.9246821878, 3.8390422339, !- X,Y,Z Vertex 1 {m}
  1.85284644, -3.77483763, 3.8390422339,  !- X,Y,Z Vertex 2 {m}
  -1.99715356, -3.77483763, 3.8390422339, !- X,Y,Z Vertex 3 {m}
  -1.99715356, -3.9246821878, 3.8390422339; !- X,Y,Z Vertex 4 {m}

Shading:Building:Detailed,
  Emerald Garden Tipe 150 - Component block 10 - Surface 6 (10), !- Name
  Transmittance schedule for Emerald Garden Tipe 150 - Component block 10, !- Transmittance Schedule Name
  ,                                       !- Number of Vertices
  1.85284644, -3.77483763, 3.6845036722,  !- X,Y,Z Vertex 1 {m}
  1.85284644, -3.9246821878, 3.6845036722, !- X,Y,Z Vertex 2 {m}
  -1.99715356, -3.9246821878, 3.6845036722, !- X,Y,Z Vertex 3 {m}
  -1.99715356, -3.77483763, 3.6845036722; !- X,Y,Z Vertex 4 {m}

Shading:Building:Detailed,
  Emerald Garden Tipe 150 - Component block 17 - Surface 3 (17), !- Name
  Transmittance schedule for Emerald Garden Tipe 150 - Component block 17, !- Transmittance Schedule Name
  ,                                       !- Number of Vertices
  4.9281205226, -2.5278153, 6.4535585693, !- X,Y,Z Vertex 1 {m}
  4.9281205226, -2.5278153, 6.2980149884, !- X,Y,Z Vertex 2 {m}
  2.3517237653, -2.5278153, 6.2980149884, !- X,Y,Z Vertex 3 {m}
  2.3517237653, -2.5278153, 6.4535585693; !- X,Y,Z Vertex 4 {m}

Shading:Building:Detailed,
  Emerald Garden Tipe 150 - Component block 17 - Surface 4 (18), !- Name
  Transmittance schedule for Emerald Garden Tipe 150 - Component block 17, !- Transmittance Schedule Name
  ,                                       !- Number of Vertices
  4.9281205226, -2.5278153, 6.2980149884, !- X,Y,Z Vertex 1 {m}
  4.9281205226, -2.676589719, 6.2980149884, !- X,Y,Z Vertex 2 {m}
  2.3517237653, -2.676589719, 6.2980149884, !- X,Y,Z Vertex 3 {m}
  2.3517237653, -2.5278153, 6.2980149884; !- X,Y,Z Vertex 4 {m}

Shading:Building:Detailed,
  Emerald Garden Tipe 150 - Component block 17 - Surface 5 (19), !- Name
  Transmittance schedule for Emerald Garden Tipe 150 - Component block 17, !- Transmittance Schedule Name
  ,                                       !- Number of Vertices
  2.3517237653, -2.676589719, 6.4535585693, !- X,Y,Z Vertex 1 {m}
  2.3517237653, -2.676589719, 6.2980149884, !- X,Y,Z Vertex 2 {m}
  4.9281205226, -2.676589719, 6.2980149884, !- X,Y,Z Vertex 3 {m}
  4.9281205226, -2.676589719, 6.4535585693; !- X,Y,Z Vertex 4 {m}

Shading:Building:Detailed,
  Emerald Garden Tipe 150 - Component block 17 - Surface 6 (20), !- Name
  Transmittance schedule for Emerald Garden Tipe 150 - Component block 17, !- Transmittance Schedule Name
  ,                                       !- Number of Vertices
  4.9281205226, -2.676589719, 6.4535585693, !- X,Y,Z Vertex 1 {m}
  4.9281205226, -2.5278153, 6.4535585693, !- X,Y,Z Vertex 2 {m}
  2.3517237653, -2.5278153, 6.4535585693, !- X,Y,Z Vertex 3 {m}
  2.3517237653, -2.676589719, 6.4535585693; !- X,Y,Z Vertex 4 {m}

Shading:Building:Detailed,
  Emerald Garden Tipe 150 - Component block 18 - Surface 3 (27), !- Name
  Transmittance schedule for Emerald Garden Tipe 150 - Component block 18, !- Transmittance Schedule Name
  ,                                       !- Number of Vertices
  -2.4978698746, -2.5278153, 6.4535585693, !- X,Y,Z Vertex 1 {m}
  -2.4978698746, -2.5278153, 6.2980149884, !- X,Y,Z Vertex 2 {m}
  -5.0644261172, -2.5278153, 6.2980149884, !- X,Y,Z Vertex 3 {m}
  -5.0644261172, -2.5278153, 6.4535585693; !- X,Y,Z Vertex 4 {m}

Shading:Building:Detailed,
  Emerald Garden Tipe 150 - Component block 18 - Surface 4 (28), !- Name
  Transmittance schedule for Emerald Garden Tipe 150 - Component block 18, !- Transmittance Schedule Name
  ,                                       !- Number of Vertices
  -2.4978698746, -2.6822271087, 6.4535585693, !- X,Y,Z Vertex 1 {m}
  -2.4978698746, -2.5278153, 6.4535585693, !- X,Y,Z Vertex 2 {m}
  -5.0644261172, -2.5278153, 6.4535585693, !- X,Y,Z Vertex 3 {m}
  -5.0644261172, -2.6822271087, 6.4535585693; !- X,Y,Z Vertex 4 {m}

Shading:Building:Detailed,
  Emerald Garden Tipe 150 - Component block 18 - Surface 5 (29), !- Name
  Transmittance schedule for Emerald Garden Tipe 150 - Component block 18, !- Transmittance Schedule Name
  ,                                       !- Number of Vertices
  -5.0644261172, -2.6822271087, 6.4535585693, !- X,Y,Z Vertex 1 {m}
  -5.0644261172, -2.6822271087, 6.2980149884, !- X,Y,Z Vertex 2 {m}
  -2.4978698746, -2.6822271087, 6.2980149884, !- X,Y,Z Vertex 3 {m}
  -2.4978698746, -2.6822271087, 6.4535585693; !- X,Y,Z Vertex 4 {m}

Shading:Building:Detailed,
  Emerald Garden Tipe 150 - Component block 18 - Surface 6 (30), !- Name
  Transmittance schedule for Emerald Garden Tipe 150 - Component block 18, !- Transmittance Schedule Name
  ,                                       !- Number of Vertices
  -2.4978698746, -2.5278153, 6.2980149884, !- X,Y,Z Vertex 1 {m}
  -2.4978698746, -2.6822271087, 6.2980149884, !- X,Y,Z Vertex 2 {m}
  -5.0644261172, -2.6822271087, 6.2980149884, !- X,Y,Z Vertex 3 {m}
  -5.0644261172, -2.5278153, 6.2980149884; !- X,Y,Z Vertex 4 {m}

Shading:Building:Detailed,
  Emerald Garden Tipe 150 - Component block 19 - Surface 3 (43), !- Name
  Transmittance schedule for Emerald Garden Tipe 150 - Component block 19, !- Transmittance Schedule Name
  ,                                       !- Number of Vertices
  4.9340693009, -2.5278153, 3.8390422339, !- X,Y,Z Vertex 1 {m}
  4.9340693009, -2.5278153, 3.6845036722, !- X,Y,Z Vertex 2 {m}
  2.0018611052, -2.5278153, 3.6845036722, !- X,Y,Z Vertex 3 {m}
  2.0018611052, -2.5278153, 3.8390422339; !- X,Y,Z Vertex 4 {m}

Shading:Building:Detailed,
  Emerald Garden Tipe 150 - Component block 19 - Surface 4 (44), !- Name
  Transmittance schedule for Emerald Garden Tipe 150 - Component block 19, !- Transmittance Schedule Name
  ,                                       !- Number of Vertices
  4.9340693009, -2.5278153, 3.6845036722, !- X,Y,Z Vertex 1 {m}
  4.9340693009, -2.6815564192, 3.6845036722, !- X,Y,Z Vertex 2 {m}
  2.0018611052, -2.6815564192, 3.6845036722, !- X,Y,Z Vertex 3 {m}
  2.0018611052, -2.5278153, 3.6845036722; !- X,Y,Z Vertex 4 {m}

Shading:Building:Detailed,
  Emerald Garden Tipe 150 - Component block 19 - Surface 5 (45), !- Name
  Transmittance schedule for Emerald Garden Tipe 150 - Component block 19, !- Transmittance Schedule Name
  ,                                       !- Number of Vertices
  2.0018611052, -2.6815564192, 3.8390422339, !- X,Y,Z Vertex 1 {m}
  2.0018611052, -2.6815564192, 3.6845036722, !- X,Y,Z Vertex 2 {m}
  4.9340693009, -2.6815564192, 3.6845036722, !- X,Y,Z Vertex 3 {m}
  4.9340693009, -2.6815564192, 3.8390422339; !- X,Y,Z Vertex 4 {m}

Shading:Building:Detailed,
  Emerald Garden Tipe 150 - Component block 19 - Surface 6 (46), !- Name
  Transmittance schedule for Emerald Garden Tipe 150 - Component block 19, !- Transmittance Schedule Name
  ,                                       !- Number of Vertices
  4.9340693009, -2.6815564192, 3.8390422339, !- X,Y,Z Vertex 1 {m}
  4.9340693009, -2.5278153, 3.8390422339, !- X,Y,Z Vertex 2 {m}
  2.0018611052, -2.5278153, 3.8390422339, !- X,Y,Z Vertex 3 {m}
  2.0018611052, -2.6815564192, 3.8390422339; !- X,Y,Z Vertex 4 {m}

Shading:Building:Detailed,
  Emerald Garden Tipe 150 - Component block 20 - Surface 3 (51), !- Name
  Transmittance schedule for Emerald Garden Tipe 150 - Component block 20, !- Transmittance Schedule Name
  ,                                       !- Number of Vertices
  -2.1482187044, -2.6735379277, 3.8390422339, !- X,Y,Z Vertex 1 {m}
  -2.1482187044, -2.5278153, 3.8390422339, !- X,Y,Z Vertex 2 {m}
  -5.0630833357, -2.5278153, 3.8390422339, !- X,Y,Z Vertex 3 {m}
  -5.0630833357, -2.6735379277, 3.8390422339; !- X,Y,Z Vertex 4 {m}

Shading:Building:Detailed,
  Emerald Garden Tipe 150 - Component block 20 - Surface 4 (52), !- Name
  Transmittance schedule for Emerald Garden Tipe 150 - Component block 20, !- Transmittance Schedule Name
  ,                                       !- Number of Vertices
  -5.0630833357, -2.6735379277, 3.8390422339, !- X,Y,Z Vertex 1 {m}
  -5.0630833357, -2.6735379277, 3.6845036722, !- X,Y,Z Vertex 2 {m}
  -2.1482187044, -2.6735379277, 3.6845036722, !- X,Y,Z Vertex 3 {m}
  -2.1482187044, -2.6735379277, 3.8390422339; !- X,Y,Z Vertex 4 {m}

Shading:Building:Detailed,
  Emerald Garden Tipe 150 - Component block 20 - Surface 5 (53), !- Name
  Transmittance schedule for Emerald Garden Tipe 150 - Component block 20, !- Transmittance Schedule Name
  ,                                       !- Number of Vertices
  -2.1482187044, -2.5278153, 3.6845036722, !- X,Y,Z Vertex 1 {m}
  -2.1482187044, -2.6735379277, 3.6845036722, !- X,Y,Z Vertex 2 {m}
  -5.0630833357, -2.6735379277, 3.6845036722, !- X,Y,Z Vertex 3 {m}
  -5.0630833357, -2.5278153, 3.6845036722; !- X,Y,Z Vertex 4 {m}

Shading:Building:Detailed,
  Emerald Garden Tipe 150 - Component block 20 - Surface 6 (54), !- Name
  Transmittance schedule for Emerald Garden Tipe 150 - Component block 20, !- Transmittance Schedule Name
  ,                                       !- Number of Vertices
  -2.1482187044, -2.5278153, 3.8390422339, !- X,Y,Z Vertex 1 {m}
  -2.1482187044, -2.5278153, 3.6845036722, !- X,Y,Z Vertex 2 {m}
  -5.0630833357, -2.5278153, 3.6845036722, !- X,Y,Z Vertex 3 {m}
  -5.0630833357, -2.5278153, 3.8390422339; !- X,Y,Z Vertex 4 {m}

Shading:Building:Detailed,
  Emerald Garden Tipe 150 - Component block 21 - Surface 1 (79), !- Name
  Transmittance schedule for Emerald Garden Tipe 150 - Component block 21, !- Transmittance Schedule Name
  ,                                       !- Number of Vertices
  1.8986374057, -3.3041054075, 3.6845036722, !- X,Y,Z Vertex 1 {m}
  1.8986374057, -3.3041054075, 3.3168789565, !- X,Y,Z Vertex 2 {m}
  -2.0435859911, -3.3041054075, 3.3168789565, !- X,Y,Z Vertex 3 {m}
  -2.0435859911, -3.3041054075, 3.6845036722; !- X,Y,Z Vertex 4 {m}

Shading:Building:Detailed,
  Emerald Garden Tipe 150 - Component block 21 - Surface 2 (80), !- Name
  Transmittance schedule for Emerald Garden Tipe 150 - Component block 21, !- Transmittance Schedule Name
  ,                                       !- Number of Vertices
  1.8986374057, -3.3041054075, 3.6845036722, !- X,Y,Z Vertex 1 {m}
  1.8986374057, -3.92468219, 3.68450367,  !- X,Y,Z Vertex 2 {m}
  1.8986374057, -3.92468219, 3.3168789559, !- X,Y,Z Vertex 3 {m}
  1.8986374057, -3.3041054075, 3.3168789565; !- X,Y,Z Vertex 4 {m}

Shading:Building:Detailed,
  Emerald Garden Tipe 150 - Component block 21 - Surface 3 (81), !- Name
  Transmittance schedule for Emerald Garden Tipe 150 - Component block 21, !- Transmittance Schedule Name
  ,                                       !- Number of Vertices
  1.8986374057, -3.92468219, 3.68450367,  !- X,Y,Z Vertex 1 {m}
  1.8986374057, -3.3041054075, 3.6845036722, !- X,Y,Z Vertex 2 {m}
  -2.0435859911, -3.3041054075, 3.6845036722, !- X,Y,Z Vertex 3 {m}
  -2.04358599, -3.92468219, 3.6845036722; !- X,Y,Z Vertex 4 {m}

Shading:Building:Detailed,
  Emerald Garden Tipe 150 - Component block 21 - Surface 4 (82), !- Name
  Transmittance schedule for Emerald Garden Tipe 150 - Component block 21, !- Transmittance Schedule Name
  ,                                       !- Number of Vertices
  1.8986374057, -3.3041054075, 3.3168789565, !- X,Y,Z Vertex 1 {m}
  1.8986374057, -3.92468219, 3.3168789559, !- X,Y,Z Vertex 2 {m}
  -2.04358599, -3.92468219, 3.3168789559, !- X,Y,Z Vertex 3 {m}
  -2.0435859911, -3.3041054075, 3.3168789565; !- X,Y,Z Vertex 4 {m}

Shading:Building:Detailed,
  Emerald Garden Tipe 150 - Component block 21 - Surface 5 (83), !- Name
  Transmittance schedule for Emerald Garden Tipe 150 - Component block 21, !- Transmittance Schedule Name
  ,                                       !- Number of Vertices
  -2.0435859911, -3.3041054075, 3.6845036722, !- X,Y,Z Vertex 1 {m}
  -2.0435859911, -3.3041054075, 3.3168789565, !- X,Y,Z Vertex 2 {m}
  -2.04358599, -3.92468219, 3.3168789559, !- X,Y,Z Vertex 3 {m}
  -2.04358599, -3.92468219, 3.6845036722; !- X,Y,Z Vertex 4 {m}

Shading:Building:Detailed,
  Emerald Garden Tipe 150 - Component block 21 - Surface 6 (84), !- Name
  Transmittance schedule for Emerald Garden Tipe 150 - Component block 21, !- Transmittance Schedule Name
  ,                                       !- Number of Vertices
  -2.04358599, -3.92468219, 3.6845036722, !- X,Y,Z Vertex 1 {m}
  -2.04358599, -3.92468219, 3.3168789559, !- X,Y,Z Vertex 2 {m}
  1.8986374057, -3.92468219, 3.3168789559, !- X,Y,Z Vertex 3 {m}
  1.8986374057, -3.92468219, 3.68450367;  !- X,Y,Z Vertex 4 {m}

Shading:Building:Detailed,
  Emerald Garden Tipe 150 - Component block 23 - Surface 1 (73), !- Name
  Transmittance schedule for Emerald Garden Tipe 150 - Component block 23, !- Transmittance Schedule Name
  ,                                       !- Number of Vertices
  1.5353859128, -2.5384921154, 3.6845036727, !- X,Y,Z Vertex 1 {m}
  1.5353859128, -2.5384921136, 3.3158503468, !- X,Y,Z Vertex 2 {m}
  1.5353859121, -3.3041054075, 3.3158503452, !- X,Y,Z Vertex 3 {m}
  1.5353859121, -3.3041054075, 3.6845036722; !- X,Y,Z Vertex 4 {m}

Shading:Building:Detailed,
  Emerald Garden Tipe 150 - Component block 23 - Surface 2 (74), !- Name
  Transmittance schedule for Emerald Garden Tipe 150 - Component block 23, !- Transmittance Schedule Name
  ,                                       !- Number of Vertices
  1.5353859121, -3.3041054075, 3.6845036722, !- X,Y,Z Vertex 1 {m}
  1.898637409, -3.3041054035, 3.6845036733, !- X,Y,Z Vertex 2 {m}
  1.8986374097, -2.5384921171, 3.6845036729, !- X,Y,Z Vertex 3 {m}
  1.5353859128, -2.5384921154, 3.6845036727; !- X,Y,Z Vertex 4 {m}

Shading:Building:Detailed,
  Emerald Garden Tipe 150 - Component block 23 - Surface 3 (75), !- Name
  Transmittance schedule for Emerald Garden Tipe 150 - Component block 23, !- Transmittance Schedule Name
  ,                                       !- Number of Vertices
  1.8986374097, -2.5384921171, 3.6845036729, !- X,Y,Z Vertex 1 {m}
  1.8986374107, -2.5384921154, 3.3158503468, !- X,Y,Z Vertex 2 {m}