
OS:Version,
  {29aecc95-5712-4539-afad-be8c10d94216}, !- Handle
  3.6.1;                                  !- Version Identifier

OS:Site,
  {eebf93c4-020a-4faa-bca1-09d39b94e586}, !- Handle
  JAKARTA-SOEKARNO-HA,                    !- Name
  -6.12,                                  !- Latitude {deg}
  106.65,                                 !- Longitude {deg}
  7,                                      !- Time Zone {hr}
  8,                                      !- Elevation {m}
  Suburbs;                                !- Terrain

OS:SimulationControl,
  {cb8da7e5-9256-49d4-ac09-34b684aecfe4}, !- Handle
  Yes,                                    !- Do Zone Sizing Calculation
  Yes,                                    !- Do System Sizing Calculation
  Yes,                                    !- Do Plant Sizing Calculation
  No,                                     !- Run Simulation for Sizing Periods
  Yes,                                    !- Run Simulation for Weather File Run Periods
  0.04,                                   !- Loads Convergence Tolerance Value {W}
  0.4,                                    !- Temperature Convergence Tolerance Value {deltaC}
  FullExterior,                           !- Solar Distribution
  25,                                     !- Maximum Number of Warmup Days
  6,                                      !- Minimum Number of Warmup Days
  No;                                     !- Do HVAC Sizing Simulation for Sizing Periods

OS:Building,
  {ff01bb72-be0e-4e45-87aa-cc1d5ec8749e}, !- Handle
  Building,                               !- Name
  ,                                       !- Building Sector Type
  0,                                      !- North Axis {deg}
  ,                                       !- Nominal Floor to Floor Height {m}
  ,                                       !- Space Type Name
  ,                                       !- Default Construction Set Name
  ;                                       !- Default Schedule Set Name

OS:ShadowCalculation,
  {e656b85c-f2e1-41c8-a0ba-e421a599eb50}, !- Handle
  PolygonClipping,                        !- Shading Calculation Method
  Periodic,                               !- Shading Calculation Update Frequency Method
  20,                                     !- Shading Calculation Update Frequency
  15000,                                  !- Maximum Figures in Shadow Overlap Calculations
  SutherlandHodgman,                      !- Polygon Clipping Algorithm
  512,                                    !- Pixel Counting Resolution
  SimpleSkyDiffuseModeling,               !- Sky Diffuse Modeling Algorithm
  No,                                     !- Output External Shading Calculation Results
  No,                                     !- Disable Self-Shading Within Shading Zone Groups
  No;                                     !- Disable Self-Shading From Shading Zone Groups to Other Zones

OS:HeatBalanceAlgorithm,
  {d959ad22-2ce0-411d-a8b0-ed7fd9f9fa06}, !- Handle
  ConductionTransferFunction,             !- Algorithm
  2000,                                   !- Surface Temperature Upper Limit {C}
  1e-08,                                  !- Minimum Surface Convection Heat Transfer Coefficient Value {W/m2-K}
  1000;                                   !- Maximum Surface Convection Heat Transfer Coefficient Value {W/m2-K}

OS:Timestep,
  {af961f0f-0aab-4a0c-8abf-a46cdea7a365}, !- Handle
  6;                                      !- Number of Timesteps per Hour

OS:ConvergenceLimits,
  {0551f9c5-7536-4e64-bff5-90801e35ee90}, !- Handle
  1,                                      !- Minimum System Timestep {minutes}
  25;                                     !- Maximum HVAC Iterations

OS:SizingPeriod:DesignDay,
  {36976676-5a27-49a9-bd2e-c02bd78f6966}, !- Handle
  Summer Design Day in IDN-Res (01-01:31-12) Jun, !- Name
  33.1,                                   !- Maximum Dry-Bulb Temperature {C}
  8.5,                                    !- Daily Dry-Bulb Temperature Range {deltaC}
  101228.9,                               !- Barometric Pressure {Pa}
  0,                                      !- Wind Speed {m/s}
  0,                                      !- Wind Direction {deg}
  0.98,                                   !- Sky Clearness
  No,                                     !- Rain Indicator
  No,                                     !- Snow Indicator
  15,                                     !- Day of Month
  6,                                      !- Month
  SummerDesignDay,                        !- Day Type
  No,                                     !- Daylight Saving Time Indicator
  WetBulb,                                !- Humidity Condition Type
  ,                                       !- Humidity Condition Day Schedule Name
  25.9,                                   !- Wetbulb or DewPoint at Maximum Dry-Bulb {C}
  ,                                       !- Humidity Ratio at Maximum Dry-Bulb {kgWater/kgDryAir}
  ,                                       !- Enthalpy at Maximum Dry-Bulb {J/kg}
  ,                                       !- Dry-Bulb Temperature Range Modifier Type
  ,                                       !- Dry-Bulb Temperature Range Modifier Day Schedule Name
  ASHRAEClearSky;                         !- Solar Model Indicator

OS:SizingPeriod:DesignDay,
  {b31f289e-2599-4806-aba3-8046ef7e1cdf}, !- Handle
  Summer Design Day in IDN-Res (01-01:31-12) Jul, !- Name
  32.9,                                   !- Maximum Dry-Bulb Temperature {C}
  8.6,                                    !- Daily Dry-Bulb Temperature Range {deltaC}
  101228.9,                               !- Barometric Pressure {Pa}
  0,                                      !- Wind Speed {m/s}
  0,                                      !- Wind Direction {deg}
  0.98,                                   !- Sky Clearness
  No,                                     !- Rain Indicator
  No,                                     !- Snow Indicator
  15,                                     !- Day of Month
  7,                                      !- Month
  SummerDesignDay,                        !- Day Type
  No,                                     !- Daylight Saving Time Indicator
  WetBulb,                                !- Humidity Condition Type
  ,                                       !- Humidity Condition Day Schedule Name
  24.6,                                   !- Wetbulb or DewPoint at Maximum Dry-Bulb {C}
  ,                                       !- Humidity Ratio at Maximum Dry-Bulb {kgWater/kgDryAir}
  ,                                       !- Enthalpy at Maximum Dry-Bulb {J/kg}
  ,                                       !- Dry-Bulb Temperature Range Modifier Type
  ,                                       !- Dry-Bulb Temperature Range Modifier Day Schedule Name
  ASHRAEClearSky;                         !- Solar Model Indicator

OS:SizingPeriod:DesignDay,
  {96269357-d044-44a4-8ae9-f8b7443c4f17}, !- Handle
  Summer Design Day in IDN-Res (01-01:31-12) Aug, !- Name
  33.1,                                   !- Maximum Dry-Bulb Temperature {C}
  9,                                      !- Daily Dry-Bulb Temperature Range {deltaC}
  101228.9,                               !- Barometric Pressure {Pa}
  0,                                      !- Wind Speed {m/s}
  0,                                      !- Wind Direction {deg}
  0.98,                                   !- Sky Clearness
  No,                                     !- Rain Indicator
  No,                                     !- Snow Indicator
  15,                                     !- Day of Month
  8,                                      !- Month
  SummerDesignDay,                        !- Day Type
  No,                                     !- Daylight Saving Time Indicator
  WetBulb,                                !- Humidity Condition Type
  ,                                       !- Humidity Condition Day Schedule Name
  25.1,                                   !- Wetbulb or DewPoint at Maximum Dry-Bulb {C}
  ,                                       !- Humidity Ratio at Maximum Dry-Bulb {kgWater/kgDryAir}
  ,                                       !- Enthalpy at Maximum Dry-Bulb {J/kg}
  ,                                       !- Dry-Bulb Temperature Range Modifier Type
  ,                                       !- Dry-Bulb Temperature Range Modifier Day Schedule Name
  ASHRAEClearSky;                         !- Solar Model Indicator

OS:SizingPeriod:DesignDay,
  {8e507860-3ea3-4000-930b-05bf3359fcbd}, !- Handle
  Summer Design Day in IDN-Res (01-01:31-12) Sep, !- Name
  33.9,                                   !- Maximum Dry-Bulb Temperature {C}
  9.3,                                    !- Daily Dry-Bulb Temperature Range {deltaC}
  101228.9,                               !- Barometric Pressure {Pa}
  0,                                      !- Wind Speed {m/s}
  0,                                      !- Wind Direction {deg}
  0.98,                                   !- Sky Clearness
  No,                                     !- Rain Indicator
  No,                                     !- Snow Indicator
  15,                                     !- Day of Month
  9,                                      !- Month
  SummerDesignDay,                        !- Day Type
  No,                                     !- Daylight Saving Time Indicator
  WetBulb,                                !- Humidity Condition Type
  ,                                       !- Humidity Condition Day Schedule Name
  25.1,                                   !- Wetbulb or DewPoint at Maximum Dry-Bulb {C}
  ,                                       !- Humidity Ratio at Maximum Dry-Bulb {kgWater/kgDryAir}
  ,                                       !- Enthalpy at Maximum Dry-Bulb {J/kg}
  ,                                       !- Dry-Bulb Temperature Range Modifier Type
  ,                                       !- Dry-Bulb Temperature Range Modifier Day Schedule Name
  ASHRAEClearSky;                         !- Solar Model Indicator

OS:SizingPeriod:DesignDay,
  {b6621bb6-20c5-4578-8ee2-ce9e3ea13e7f}, !- Handle
  Winter Design Day in IDN-Res (01-01:31-12), !- Name
  22,                                     !- Maximum Dry-Bulb Temperature {C}
  0,                                      !- Daily Dry-Bulb Temperature Range {deltaC}
  101228.9,                               !- Barometric Pressure {Pa}
  1.1,                                    !- Wind Speed {m/s}
  190,                                    !- Wind Direction {deg}
  0,                                      !- Sky Clearness
  No,                                     !- Rain Indicator
  No,                                     !- Snow Indicator
  15,                                     !- Day of Month
  7,                                      !- Month
  WinterDesignDay,                        !- Day Type
  No,                                     !- Daylight Saving Time Indicator
  WetBulb,                                !- Humidity Condition Type
  ,                                       !- Humidity Condition Day Schedule Name
  22,                                     !- Wetbulb or DewPoint at Maximum Dry-Bulb {C}
  ,                                       !- Humidity Ratio at Maximum Dry-Bulb {kgWater/kgDryAir}
  ,                                       !- Enthalpy at Maximum Dry-Bulb {J/kg}
  ,                                       !- Dry-Bulb Temperature Range Modifier Type
  ,                                       !- Dry-Bulb Temperature Range Modifier Day Schedule Name
  ;                                       !- Solar Model Indicator

OS:RunPeriod,
  {d5eded55-bdbf-4618-888e-f5dfdea65d35}, !- Handle
  IDN-Res (01-01:31-12),                  !- Name
  1,                                      !- Begin Month
  1,                                      !- Begin Day of Month
  12,                                     !- End Month
  31,                                     !- End Day of Month
  No,                                     !- Use Weather File Holidays and Special Days
  Yes,                                    !- Use Weather File Daylight Saving Period
  Yes,                                    !- Apply Weekend Holiday Rule
  Yes,                                    !- Use Weather File Rain Indicators
  Yes,                                    !- Use Weather File Snow Indicators
  ;                                       !- Number of Times Runperiod to be Repeated

OS:YearDescription,
  {8ae263fb-b6b9-4a9f-b36c-d17ed492ee9f}, !- Handle
  ,                                       !- Calendar Year
  Sunday,                                 !- Day of Week for Start Day
  ;                                       !- Is Leap Year

OS:RunPeriodControl:SpecialDays,
  {7a902ca2-b04e-46fb-9519-50b42b16b5ba}, !- Handle
  New Years Day,                          !- Name
  1 Jan,                                  !- Start Date
  1,                                      !- Duration {days}
  Holiday;                                !- Special Day Type

OS:RunPeriodControl:SpecialDays,
  {438e5ccf-c747-44d9-b234-ad98511f085d}, !- Handle
  Christmas Day,                          !- Name
  25 Dec,                                 !- Start Date
  1,                                      !- Duration {days}
  Holiday;                                !- Special Day Type

OS:RunPeriodControl:SpecialDays,
  {10aee06b-7ec6-4c4e-a940-f1d246c99f1b}, !- Handle
  Boxing Day,                             !- Name
  26 Dec,                                 !- Start Date
  1,                                      !- Duration {days}
  Holiday;                                !- Special Day Type

OS:RunPeriodControl:SpecialDays,
  {7fc5e508-37c2-4d91-9325-84f3cb2534cb}, !- Handle
  Easter Monday,                          !- Name
  2nd Monday in April,                    !- Start Date
  1,                                      !- Duration {days}
  Holiday;                                !- Special Day Type

OS:RunPeriodControl:SpecialDays,
  {9de64098-b201-4896-9c05-ca4aa56a7f15}, !- Handle
  Easter Sunday,                          !- Name
  1st Sunday in April,                    !- Start Date
  1,                                      !- Duration {days}
  Holiday;                                !- Special Day Type

OS:ScheduleTypeLimits,
  {b0b0d55d-ab43-4903-86bc-00224dab357d}, !- Handle
  Schedule Type Limits 1;                 !- Name

OS:ScheduleTypeLimits,
  {366e21e7-1a11-45ed-9f19-eb05c3a6b2cf}, !- Handle
  Fraction,                               !- Name
  0,                                      !- Lower Limit Value
  1,                                      !- Upper Limit Value
  CONTINUOUS;                             !- Numeric Type

OS:ScheduleTypeLimits,
  {825fe5c1-3f96-4547-80ee-9ecb75f0c8cc}, !- Handle
  Temperature,                            !- Name
  -60,                                    !- Lower Limit Value
  200,                                    !- Upper Limit Value
  CONTINUOUS,                             !- Numeric Type
  Temperature;                            !- Unit Type

OS:ScheduleTypeLimits,
  {a1746b80-59b9-47a9-b174-e902b9be1047}, !- Handle
  Control Type,                           !- Name
  0,                                      !- Lower Limit Value
  4,                                      !- Upper Limit Value
  DISCRETE,                               !- Numeric Type
  ControlMode;                            !- Unit Type

OS:ScheduleTypeLimits,
  {d9564e75-a142-402b-a97b-aaa633c604dc}, !- Handle
  On/Off,                                 !- Name
  0,                                      !- Lower Limit Value
  1,                                      !- Upper Limit Value
  DISCRETE,                               !- Numeric Type
  Availability;                           !- Unit Type

OS:Schedule:Day,
  {ba56a76b-06e1-4fa6-a550-cdd168b3eac9}, !- Handle
  0,                                      !- Name
  ,                                       !- Schedule Type Limits Name
  ,                                       !- Interpolate to Timestep
  1,                                      !- Hour 1
  0,                                      !- Minute 1
  0,                                      !- Value Until Time 1
  2,                                      !- Hour 2
  0,                                      !- Minute 2
  0,                                      !- Value Until Time 2
  3,                                      !- Hour 3
  0,                                      !- Minute 3
  0,                                      !- Value Until Time 3
  4,                                      !- Hour 4
  0,                                      !- Minute 4
  0,                                      !- Value Until Time 4
  5,                                      !- Hour 5
  0,                                      !- Minute 5
  0,                                      !- Value Until Time 5
  6,                                      !- Hour 6
  0,                                      !- Minute 6
  0,                                      !- Value Until Time 6
  7,                                      !- Hour 7
  0,                                      !- Minute 7
  0,                                      !- Value Until Time 7
  8,                                      !- Hour 8
  0,                                      !- Minute 8
  0,                                      !- Value Until Time 8
  9,                                      !- Hour 9
  0,                                      !- Minute 9
  0,                                      !- Value Until Time 9
  10,                                     !- Hour 10
  0,                                      !- Minute 10
  0,                                      !- Value Until Time 10
  11,                                     !- Hour 11
  0,                                      !- Minute 11
  0,                                      !- Value Until Time 11
  12,                                     !- Hour 12
  0,                                      !- Minute 12
  0,                                      !- Value Until Time 12
  13,                                     !- Hour 13
  0,                                      !- Minute 13
  0,                                      !- Value Until Time 13
  14,                                     !- Hour 14
  0,                                      !- Minute 14
  0,                                      !- Value Until Time 14
  15,                                     !- Hour 15
  0,                                      !- Minute 15
  0,                                      !- Value Until Time 15
  16,                                     !- Hour 16
  0,                                      !- Minute 16
  0,                                      !- Value Until Time 16
  17,                                     !- Hour 17
  0,                                      !- Minute 17
  0,                                      !- Value Until Time 17
  18,                                     !- Hour 18
  0,                                      !- Minute 18
  0,                                      !- Value Until Time 18
  19,                                     !- Hour 19
  0,                                      !- Minute 19
  0,                                      !- Value Until Time 19
  20,                                     !- Hour 20
  0,                                      !- Minute 20
  0,                                      !- Value Until Time 20
  21,                                     !- Hour 21
  0,                                      !- Minute 21
  0,                                      !- Value Until Time 21
  22,                                     !- Hour 22
  0,                                      !- Minute 22
  0,                                      !- Value Until Time 22
  23,                                     !- Hour 23
  0,                                      !- Minute 23
  0,                                      !- Value Until Time 23
  24,                                     !- Hour 24
  0,                                      !- Minute 24
  0;                                      !- Value Until Time 24

OS:ScheduleTypeLimits,
  {c30af962-a319-4093-873c-495b60751792}, !- Handle
  Schedule Type Limits 2;                 !- Name

OS:Schedule:Day,
  {2174c582-c79b-4f1f-97c8-4e2d86ffc8e7}, !- Handle
  50,                                     !- Name
  ,                                       !- Schedule Type Limits Name
  ,                                       !- Interpolate to Timestep
  1,                                      !- Hour 1
  0,                                      !- Minute 1
  50,                                     !- Value Until Time 1
  2,                                      !- Hour 2
  0,                                      !- Minute 2
  50,                                     !- Value Until Time 2
  3,                                      !- Hour 3
  0,                                      !- Minute 3
  50,                                     !- Value Until Time 3
  4,                                      !- Hour 4
  0,                                      !- Minute 4
  50,                                     !- Value Until Time 4
  5,                                      !- Hour 5
  0,                                      !- Minute 5
  50,                                     !- Value Until Time 5
  6,                                      !- Hour 6
  0,                                      !- Minute 6
  50,                                     !- Value Until Time 6
  7,                                      !- Hour 7
  0,                                      !- Minute 7
  50,                                     !- Value Until Time 7
  8,                                      !- Hour 8
  0,                                      !- Minute 8
  50,                                     !- Value Until Time 8
  9,                                      !- Hour 9
  0,                                      !- Minute 9
  50,                                     !- Value Until Time 9
  10,                                     !- Hour 10
  0,                                      !- Minute 10
  50,                                     !- Value Until Time 10
  11,                                     !- Hour 11
  0,                                      !- Minute 11
  50,                                     !- Value Until Time 11
  12,                                     !- Hour 12
  0,                                      !- Minute 12
  50,                                     !- Value Until Time 12
  13,                                     !- Hour 13
  0,                                      !- Minute 13
  50,                                     !- Value Until Time 13
  14,                                     !- Hour 14
  0,                                      !- Minute 14
  50,                                     !- Value Until Time 14
  15,                                     !- Hour 15
  0,                                      !- Minute 15
  50,                                     !- Value Until Time 15
  16,                                     !- Hour 16
  0,                                      !- Minute 16
  50,                                     !- Value Until Time 16
  17,                                     !- Hour 17
  0,                                      !- Minute 17
  50,                                     !- Value Until Time 17
  18,                                     !- Hour 18
  0,                                      !- Minute 18
  50,                                     !- Value Until Time 18
  19,                                     !- Hour 19
  0,                                      !- Minute 19
  50,                                     !- Value Until Time 19
  20,                                     !- Hour 20
  0,                                      !- Minute 20
  50,                                     !- Value Until Time 20
  21,                                     !- Hour 21
  0,                                      !- Minute 21
  50,                                     !- Value Until Time 21
  22,                                     !- Hour 22
  0,                                      !- Minute 22
  50,                                     !- Value Until Time 22
  23,                                     !- Hour 23
  0,                                      !- Minute 23
  50,                                     !- Value Until Time 23
  24,                                     !- Hour 24
  0,                                      !- Minute 24
  50;                                     !- Value Until Time 24

OS:ScheduleTypeLimits,
  {a881e2c5-c55b-4c95-8a83-7e036248933b}, !- Handle
  Schedule Type Limits 3;                 !- Name

OS:Schedule:Day,
  {2d548b8d-777b-4177-bd8d-b77e782d74d5}, !- Handle
  Off,                                    !- Name
  {366e21e7-1a11-45ed-9f19-eb05c3a6b2cf}, !- Schedule Type Limits Name
  ,                                       !- Interpolate to Timestep
  1,                                      !- Hour 1
  0,                                      !- Minute 1
  0,                                      !- Value Until Time 1
  2,                                      !- Hour 2
  0,                                      !- Minute 2
  0,                                      !- Value Until Time 2
  3,                                      !- Hour 3
  0,                                      !- Minute 3
  0,                                      !- Value Until Time 3
  4,                                      !- Hour 4
  0,                                      !- Minute 4
  0,                                      !- Value Until Time 4
  5,                                      !- Hour 5
  0,                                      !- Minute 5
  0,                                      !- Value Until Time 5
  6,                                      !- Hour 6
  0,                                      !- Minute 6
  0,                                      !- Value Until Time 6
  7,                                      !- Hour 7
  0,                                      !- Minute 7
  0,                                      !- Value Until Time 7
  8,                                      !- Hour 8
  0,                                      !- Minute 8
  0,                                      !- Value Until Time 8
  9,                                      !- Hour 9
  0,                                      !- Minute 9
  0,                                      !- Value Until Time 9
  10,                                     !- Hour 10
  0,                                      !- Minute 10
  0,                                      !- Value Until Time 10
  11,                                     !- Hour 11
  0,                                      !- Minute 11
  0,                                      !- Value Until Time 11
  12,                                     !- Hour 12
  0,                                      !- Minute 12
  0,                                      !- Value Until Time 12
  13,                                     !- Hour 13
  0,                                      !- Minute 13
  0,                                      !- Value Until Time 13
  14,                                     !- Hour 14
  0,                                      !- Minute 14
  0,                                      !- Value Until Time 14
  15,                                     !- Hour 15
  0,                                      !- Minute 15
  0,                                      !- Value Until Time 15
  16,                                     !- Hour 16
  0,                                      !- Minute 16
  0,                                      !- Value Until Time 16
  17,                                     !- Hour 17
  0,                                      !- Minute 17
  0,                                      !- Value Until Time 17
  18,                                     !- Hour 18
  0,                                      !- Minute 18
  0,                                      !- Value Until Time 18
  19,                                     !- Hour 19
  0,                                      !- Minute 19
  0,                                      !- Value Until Time 19
  20,                                     !- Hour 20
  0,                                      !- Minute 20
  0,                                      !- Value Until Time 20
  21,                                     !- Hour 21
  0,                                      !- Minute 21
  0,                                      !- Value Until Time 21
  22,                                     !- Hour 22
  0,                                      !- Minute 22
  0,                                      !- Value Until Time 22
  23,                                     !- Hour 23
  0,                                      !- Minute 23
  0,                                      !- Value Until Time 23
  24,                                     !- Hour 24
  0,                                      !- Minute 24
  0;                                      !- Value Until Time 24

OS:Schedule:Day,
  {2da8fda5-85d8-4a7a-a91b-31ac45f81175}, !- Handle
  Summer Control Type Day Sch,            !- Name
  {a1746b80-59b9-47a9-b174-e902b9be1047}, !- Schedule Type Limits Name
  ,                                       !- Interpolate to Timestep
  1,                                      !- Hour 1
  0,                                      !- Minute 1
  4,                                      !- Value Until Time 1
  2,                                      !- Hour 2
  0,                                      !- Minute 2
  4,                                      !- Value Until Time 2
  3,                                      !- Hour 3
  0,                                      !- Minute 3