
Version,
  23.1;                                   !- Version Identifier

Timestep,
  6;                                      !- Number of Timesteps per Hour

LifeCycleCost:Parameters,
  Life Cycle Cost Parameters,             !- Name
  EndOfYear,                              !- Discounting Convention
  ConstantDollar,                         !- Inflation Approach
  0.03,                                   !- Real Discount Rate
  ,                                       !- Nominal Discount Rate
  ,                                       !- Inflation
  ,                                       !- Base Date Month
  2011,                                   !- Base Date Year
  ,                                       !- Service Date Month
  2011,                                   !- Service Date Year
  25,                                     !- Length of Study Period in Years
  ,                                       !- Tax rate
  None;                                   !- Depreciation Method

LifeCycleCost:UsePriceEscalation,
  U.S. Avg  Commercial-Electricity,       !- Name
  Electricity,                            !- Resource
  2011,                                   !- Escalation Start Year
  January,                                !- Escalation Start Month
  0.9838,                                 !- Year Escalation 1
  0.9730,                                 !- Year Escalation 2
  0.9632,                                 !- Year Escalation 3
  0.9611,                                 !- Year Escalation 4
  0.9571,                                 !- Year Escalation 5
  0.9553,                                 !- Year Escalation 6
  0.9539,                                 !- Year Escalation 7
  0.9521,                                 !- Year Escalation 8
  0.9546,                                 !- Year Escalation 9
  0.9550,                                 !- Year Escalation 10
  0.9553,                                 !- Year Escalation 11
  0.9564,                                 !- Year Escalation 12
  0.9575,                                 !- Year Escalation 13
  0.9596,                                 !- Year Escalation 14
  0.9618,                                 !- Year Escalation 15
  0.9614,                                 !- Year Escalation 16
  0.9618,                                 !- Year Escalation 17
  0.9618,                                 !- Year Escalation 18
  0.9593,                                 !- Year Escalation 19
  0.9589,                                 !- Year Escalation 20
  0.9607,                                 !- Year Escalation 21
  0.9625,                                 !- Year Escalation 22
  0.9650,                                 !- Year Escalation 23
  0.9708,                                 !- Year Escalation 24
  0.9751,                                 !- Year Escalation 25
  0.9762,                                 !- Year Escalation 26
  0.9766,                                 !- Year Escalation 27
  0.9766,                                 !- Year Escalation 28
  0.9769,                                 !- Year Escalation 29
  0.9773;                                 !- Year Escalation 30

LifeCycleCost:UsePriceEscalation,
  U.S. Avg  Commercial-Distillate Oil,    !- Name
  FuelOilNo1,                             !- Resource
  2011,                                   !- Escalation Start Year
  January,                                !- Escalation Start Month
  0.9714,                                 !- Year Escalation 1
  0.9730,                                 !- Year Escalation 2
  0.9942,                                 !- Year Escalation 3
  1.0164,                                 !- Year Escalation 4
  1.0541,                                 !- Year Escalation 5
  1.0928,                                 !- Year Escalation 6
  1.1267,                                 !- Year Escalation 7
  1.1580,                                 !- Year Escalation 8
  1.1792,                                 !- Year Escalation 9
  1.1967,                                 !- Year Escalation 10
  1.2200,                                 !- Year Escalation 11
  1.2333,                                 !- Year Escalation 12
  1.2566,                                 !- Year Escalation 13
  1.2709,                                 !- Year Escalation 14
  1.2826,                                 !- Year Escalation 15
  1.2985,                                 !- Year Escalation 16
  1.3102,                                 !- Year Escalation 17
  1.3250,                                 !- Year Escalation 18
  1.3261,                                 !- Year Escalation 19
  1.3282,                                 !- Year Escalation 20
  1.3324,                                 !- Year Escalation 21
  1.3356,                                 !- Year Escalation 22
  1.3431,                                 !- Year Escalation 23
  1.3510,                                 !- Year Escalation 24
  1.3568,                                 !- Year Escalation 25
  1.3606,                                 !- Year Escalation 26
  1.3637,                                 !- Year Escalation 27
  1.3674,                                 !- Year Escalation 28
  1.3706,                                 !- Year Escalation 29
  1.3743;                                 !- Year Escalation 30

LifeCycleCost:UsePriceEscalation,
  U.S. Avg  Commercial-Residual Oil,      !- Name
  FuelOilNo2,                             !- Resource
  2011,                                   !- Escalation Start Year
  January,                                !- Escalation Start Month
  0.8469,                                 !- Year Escalation 1
  0.8257,                                 !- Year Escalation 2
  0.8681,                                 !- Year Escalation 3
  0.8988,                                 !- Year Escalation 4
  0.9289,                                 !- Year Escalation 5
  0.9604,                                 !- Year Escalation 6
  0.9897,                                 !- Year Escalation 7
  1.0075,                                 !- Year Escalation 8
  1.0314,                                 !- Year Escalation 9
  1.0554,                                 !- Year Escalation 10
  1.0861,                                 !- Year Escalation 11
  1.1278,                                 !- Year Escalation 12
  1.1497,                                 !- Year Escalation 13
  1.1620,                                 !- Year Escalation 14
  1.1743,                                 !- Year Escalation 15
  1.1852,                                 !- Year Escalation 16
  1.1948,                                 !- Year Escalation 17
  1.2037,                                 !- Year Escalation 18
  1.2071,                                 !- Year Escalation 19
  1.2119,                                 !- Year Escalation 20
  1.2139,                                 !- Year Escalation 21
  1.2194,                                 !- Year Escalation 22
  1.2276,                                 !- Year Escalation 23
  1.2365,                                 !- Year Escalation 24
  1.2420,                                 !- Year Escalation 25
  1.2461,                                 !- Year Escalation 26
  1.2509,                                 !- Year Escalation 27
  1.2550,                                 !- Year Escalation 28
  1.2591,                                 !- Year Escalation 29
  1.2638;                                 !- Year Escalation 30

LifeCycleCost:UsePriceEscalation,
  U.S. Avg  Commercial-Natural gas,       !- Name
  NaturalGas,                             !- Resource
  2011,                                   !- Escalation Start Year
  January,                                !- Escalation Start Month
  0.9823,                                 !- Year Escalation 1
  0.9557,                                 !- Year Escalation 2
  0.9279,                                 !- Year Escalation 3
  0.9257,                                 !- Year Escalation 4
  0.9346,                                 !- Year Escalation 5
  0.9412,                                 !- Year Escalation 6
  0.9512,                                 !- Year Escalation 7
  0.9645,                                 !- Year Escalation 8
  0.9856,                                 !- Year Escalation 9
  1.0067,                                 !- Year Escalation 10
  1.0222,                                 !- Year Escalation 11
  1.0410,                                 !- Year Escalation 12
  1.0610,                                 !- Year Escalation 13
  1.0787,                                 !- Year Escalation 14
  1.0942,                                 !- Year Escalation 15
  1.1098,                                 !- Year Escalation 16
  1.1220,                                 !- Year Escalation 17
  1.1308,                                 !- Year Escalation 18
  1.1386,                                 !- Year Escalation 19
  1.1486,                                 !- Year Escalation 20
  1.1619,                                 !- Year Escalation 21
  1.1763,                                 !- Year Escalation 22
  1.1918,                                 !- Year Escalation 23
  1.2118,                                 !- Year Escalation 24
  1.2284,                                 !- Year Escalation 25
  1.2439,                                 !- Year Escalation 26
  1.2605,                                 !- Year Escalation 27
  1.2772,                                 !- Year Escalation 28
  1.2938,                                 !- Year Escalation 29
  1.3115;                                 !- Year Escalation 30

LifeCycleCost:UsePriceEscalation,
  U.S. Avg  Commercial-Coal,              !- Name
  Coal,                                   !- Resource
  2011,                                   !- Escalation Start Year
  January,                                !- Escalation Start Month
  0.9970,                                 !- Year Escalation 1
  1.0089,                                 !- Year Escalation 2
  1.0089,                                 !- Year Escalation 3
  0.9941,                                 !- Year Escalation 4
  0.9941,                                 !- Year Escalation 5
  1.0000,                                 !- Year Escalation 6
  1.0030,                                 !- Year Escalation 7
  1.0059,                                 !- Year Escalation 8
  1.0089,                                 !- Year Escalation 9
  1.0119,                                 !- Year Escalation 10
  1.0148,                                 !- Year Escalation 11
  1.0178,                                 !- Year Escalation 12
  1.0208,                                 !- Year Escalation 13
  1.0267,                                 !- Year Escalation 14
  1.0297,                                 !- Year Escalation 15
  1.0356,                                 !- Year Escalation 16
  1.0415,                                 !- Year Escalation 17
  1.0534,                                 !- Year Escalation 18
  1.0564,                                 !- Year Escalation 19
  1.0593,                                 !- Year Escalation 20
  1.0653,                                 !- Year Escalation 21
  1.0712,                                 !- Year Escalation 22
  1.0742,                                 !- Year Escalation 23
  1.0801,                                 !- Year Escalation 24
  1.0831,                                 !- Year Escalation 25
  1.0831,                                 !- Year Escalation 26
  1.0861,                                 !- Year Escalation 27
  1.0890,                                 !- Year Escalation 28
  1.0920,                                 !- Year Escalation 29
  1.0950;                                 !- Year Escalation 30

Building,
  Building,                               !- Name
  0,                                      !- North Axis {deg}
  Suburbs,                                !- Terrain
  0.04,                                   !- Loads Convergence Tolerance Value {W}
  0.4,                                    !- Temperature Convergence Tolerance Value {deltaC}
  FullExterior,                           !- Solar Distribution
  25,                                     !- Maximum Number of Warmup Days
  6;                                      !- Minimum Number of Warmup Days

Zone,
  Bath,                                   !- Name
  0,                                      !- Direction of Relative North {deg}
  0,                                      !- X Origin {m}
  0,                                      !- Y Origin {m}
  0,                                      !- Z Origin {m}
  ,                                       !- Type
  1,                                      !- Multiplier
  ,                                       !- Ceiling Height {m}
  3.0715,                                 !- Volume {m3}
  ,                                       !- Floor Area {m2}
  TARP,                                   !- Zone Inside Convection Algorithm
  ,                                       !- Zone Outside Convection Algorithm
  Yes;                                    !- Part of Total Floor Area

Space,
  Bath Space,                             !- Name
  Bath,                                   !- Zone Name
  ,                                       !- Ceiling Height {m}
  ,                                       !- Volume {m3}
  ;                                       !- Floor Area {m2}

BuildingSurface:Detailed,
  438_Ceiling_1_0_0,                      !- Name
  Ceiling,                                !- Surface Type
  Ceiling-Const,                          !- Construction Name
  Bath,                                   !- Zone Name
  Bath Space,                             !- Space Name
  Surface,                                !- Outside Boundary Condition
  563_Floor_1_0_10010,                    !- Outside Boundary Condition Object
  NoSun,                                  !- Sun Exposure
  NoWind,                                 !- Wind Exposure
  0,                                      !- View Factor to Ground
  ,                                       !- Number of Vertices
  6.00969966, -1.59844469, 3.4,           !- X,Y,Z Vertex 1 {m}
  6.00969966, 0.00155531, 3.4,            !- X,Y,Z Vertex 2 {m}
  4.90969966, 0.00155531, 3.4,            !- X,Y,Z Vertex 3 {m}
  4.90969966, -1.59844469, 3.4;           !- X,Y,Z Vertex 4 {m}

BuildingSurface:Detailed,
  438_GroundFloor_0_0_0,                  !- Name
  Floor,                                  !- Surface Type
  GroundFloor-Const,                      !- Construction Name
  Bath,                                   !- Zone Name
  Bath Space,                             !- Space Name
  Ground,                                 !- Outside Boundary Condition
  ,                                       !- Outside Boundary Condition Object
  NoSun,                                  !- Sun Exposure
  NoWind,                                 !- Wind Exposure
  ,                                       !- View Factor to Ground
  ,                                       !- Number of Vertices
  6.00969966, 0.00155531, 0,              !- X,Y,Z Vertex 1 {m}
  6.00969966, -1.59844469, 0,             !- X,Y,Z Vertex 2 {m}
  4.90969966, -1.59844469, 0,             !- X,Y,Z Vertex 3 {m}
  4.90969966, 0.00155531, 0;              !- X,Y,Z Vertex 4 {m}

BuildingSurface:Detailed,
  438_Partition_4_0_10002,                !- Name
  Wall,                                   !- Surface Type
  Int-Wall-Const Reversed,                !- Construction Name
  Bath,                                   !- Zone Name
  Bath Space,                             !- Space Name
  Surface,                                !- Outside Boundary Condition
  429_Partition_2_0_0,                    !- Outside Boundary Condition Object
  NoSun,                                  !- Sun Exposure
  NoWind,                                 !- Wind Exposure
  0,                                      !- View Factor to Ground
  ,                                       !- Number of Vertices
  4.90969966, 0.00155531, 3.4,            !- X,Y,Z Vertex 1 {m}
  4.90969966, 0.00155531, 0,              !- X,Y,Z Vertex 2 {m}
  4.90969966, -1.59844469, 0,             !- X,Y,Z Vertex 3 {m}
  4.90969966, -1.59844469, 3.4;           !- X,Y,Z Vertex 4 {m}

BuildingSurface:Detailed,
  438_Partition_5_0_10009,                !- Name
  Wall,                                   !- Surface Type
  Int-Wall-Const Reversed,                !- Construction Name
  Bath,                                   !- Zone Name
  Bath Space,                             !- Space Name
  Surface,                                !- Outside Boundary Condition
  429_Partition_7_0_0,                    !- Outside Boundary Condition Object
  NoSun,                                  !- Sun Exposure
  NoWind,                                 !- Wind Exposure
  0,                                      !- View Factor to Ground
  ,                                       !- Number of Vertices
  4.90969966, -1.59844469, 3.4,           !- X,Y,Z Vertex 1 {m}
  4.90969966, -1.59844469, 0,             !- X,Y,Z Vertex 2 {m}
  6.00969966, -1.59844469, 0,             !- X,Y,Z Vertex 3 {m}
  6.00969966, -1.59844469, 3.4;           !- X,Y,Z Vertex 4 {m}

BuildingSurface:Detailed,
  438_Wall_2_0_0,                         !- Name
  Wall,                                   !- Surface Type
  Ext-Wall-Const[],                         !- Construction Name
  Bath,                                   !- Zone Name
  Bath Space,                             !- Space Name
  Outdoors,                               !- Outside Boundary Condition
  ,                                       !- Outside Boundary Condition Object
  SunExposed,                             !- Sun Exposure
  WindExposed,                            !- Wind Exposure
  ,                                       !- View Factor to Ground
  ,                                       !- Number of Vertices
  6.00969966, -1.59844469, 3.4,           !- X,Y,Z Vertex 1 {m}
  6.00969966, -1.59844469, 0,             !- X,Y,Z Vertex 2 {m}
  6.00969966, 0.00155531, 0,              !- X,Y,Z Vertex 3 {m}
  6.00969966, 0.00155531, 3.4;            !- X,Y,Z Vertex 4 {m}

BuildingSurface:Detailed,
  438_Wall_3_0_0,                         !- Name
  Wall,                                   !- Surface Type
  Ext-Wall-Const[],                         !- Construction Name
  Bath,                                   !- Zone Name
  Bath Space,                             !- Space Name
  Outdoors,                               !- Outside Boundary Condition
  ,                                       !- Outside Boundary Condition Object
  SunExposed,                             !- Sun Exposure
  WindExposed,                            !- Wind Exposure
  ,                                       !- View Factor to Ground
  ,                                       !- Number of Vertices
  6.00969966, 0.00155531, 3.4,            !- X,Y,Z Vertex 1 {m}
  6.00969966, 0.00155531, 0,              !- X,Y,Z Vertex 2 {m}
  4.90969966, 0.00155531, 0,              !- X,Y,Z Vertex 3 {m}
  4.90969966, 0.00155531, 3.4;            !- X,Y,Z Vertex 4 {m}

FenestrationSurface:Detailed,
  Bath_Win,                               !- Name
  Window,                                 !- Surface Type
  Window Res Operable,                    !- Construction Name
  438_Wall_3_0_0,                         !- Building Surface Name
  ,                                       !- Outside Boundary Condition Object
  ,                                       !- View Factor to Ground
  1,                                      !- Frame and Divider Name
  1,                                      !- Multiplier
  ,                                       !- Number of Vertices
  5.67749966, 0.00155531, 2.96,           !- X,Y,Z Vertex 1 {m}
  5.67749966, 0.00155531, 2.54,           !- X,Y,Z Vertex 2 {m}
  5.15749966, 0.00155531, 2.54,           !- X,Y,Z Vertex 3 {m}
  5.15749966, 0.00155531, 2.96;           !- X,Y,Z Vertex 4 {m}

Lights,
  Bath General lighting,                  !- Name
  Bath Space,                             !- Zone or ZoneList or Space or SpaceList Name
  Ltg-Sch-Bath,                           !- Schedule Name
  Watts/Area,                             !- Design Level Calculation Method
  ,                                       !- Lighting Level {W}
  5,                                      !- Watts per Zone Floor Area {W/m2}
  ,                                       !- Watts per Person {W/person}
  0,                                      !- Return Air Fraction
  0.42,                                   !- Fraction Radiant
  0.18,                                   !- Fraction Visible
  1,                                      !- Fraction Replaceable
  General;                                !- End-Use Subcategory

Schedule:Compact,
  Ltg-Sch-Bath,                           !- Name
  Fraction,                               !- Schedule Type Limits Name
  Through: 31 Dec,                        !- Field 1
  For: Weekdays SummerDesignDay,          !- Field 2
  Until: 07:00,                           !- Field 3
  0,                                      !- Field 4
  Until: 09:00,                           !- Field 5
  1,                                      !- Field 6
  Until: 18:00,                           !- Field 7
  0,                                      !- Field 8
  Until: 23:00,                           !- Field 9
  1,                                      !- Field 10
  Until: 24:00,                           !- Field 11
  0,                                      !- Field 12
  For: Weekends,                          !- Field 13
  Until: 09:00,                           !- Field 14
  0,                                      !- Field 15
  Until: 10:00,                           !- Field 16
  1,                                      !- Field 17
  Until: 12:00,                           !- Field 18
  0,                                      !- Field 19
  Until: 13:00,                           !- Field 20
  1,                                      !- Field 21
  Until: 15:00,                           !- Field 22
  0,                                      !- Field 23
  Until: 16:00,                           !- Field 24
  1,                                      !- Field 25
  Until: 18:00,                           !- Field 26
  0,                                      !- Field 27
  Until: 23:00,                           !- Field 28
  1,                                      !- Field 29
  Until: 24:00,                           !- Field 30
  0,                                      !- Field 31
  For: Holidays,                          !- Field 32
  Until: 24:00,                           !- Field 33
  0,                                      !- Field 34
  For: WinterDesignDay AllOtherDays,      !- Field 35
  Until: 24:00,                           !- Field 36
  0;                                      !- Field 37

ScheduleTypeLimits,
  Fraction,                               !- Name
  0,                                      !- Lower Limit Value {BasedOnField A3}
  1,                                      !- Upper Limit Value {BasedOnField A3}
  CONTINUOUS;                             !- Numeric Type

People,
  People Bath,                            !- Name
  Bath Space,                             !- Zone or ZoneList or Space or SpaceList Name
  Occ-Sch-Bath,                           !- Number of People Schedule Name
  People,                                 !- Number of People Calculation Method
  1,                                      !- Number of People
  ,                                       !- People per Floor Area {person/m2}
  ,                                       !- Floor Area per Person {m2/person}
  0.3,                                    !- Fraction Radiant
  ,                                       !- Sensible Heat Fraction
  Activity Schedule Bath,                 !- Activity Level Schedule Name
  3.82e-08,                               !- Carbon Dioxide Generation Rate {m3/s-W}
  Yes,                                    !- Enable ASHRAE 55 Comfort Warnings
  ZoneAveraged,                           !- Mean Radiant Temperature Calculation Type
  ,                                       !- Surface Name/Angle Factor List Name
  Work efficiency,                        !- Work Efficiency Schedule Name
  ,                                       !- Clothing Insulation Calculation Method
  ,                                       !- Clothing Insulation Calculation Method Schedule Name
  Clothing Schedule Bath,                 !- Clothing Insulation Schedule Name
  Air Velocity Others,                    !- Air Velocity Schedule Name
  FANGER;                                 !- Thermal Comfort Model 1 Type

Schedule:Compact,
  Occ-Sch-Bath,                           !- Name
  Fraction,                               !- Schedule Type Limits Name
  Through: 31 Dec,                        !- Field 1
  For: Weekdays SummerDesignDay,          !- Field 2
  Until: 07:00,                           !- Field 3
  0,                                      !- Field 4
  Until: 09:00,                           !- Field 5
  0.1,                                    !- Field 6
  Until: 18:00,                           !- Field 7
  0,                                      !- Field 8
  Until: 22:00,                           !- Field 9
  0.1,                                    !- Field 10
  Until: 23:00,                           !- Field 11
  0.05,                                   !- Field 12
  Until: 24:00,                           !- Field 13
  0,                                      !- Field 14
  For: Weekends,                          !- Field 15
  Until: 09:00,                           !- Field 16
  0,                                      !- Field 17
  Until: 10:00,                           !- Field 18
  0.1,                                    !- Field 19
  Until: 12:00,                           !- Field 20
  0,                                      !- Field 21
  Until: 13:00,                           !- Field 22
  0.1,                                    !- Field 23
  Until: 15:00,                           !- Field 24
  0,                                      !- Field 25
  Until: 16:00,                           !- Field 26
  0.1,                                    !- Field 27
  Until: 18:00,                           !- Field 28
  0,                                      !- Field 29
  Until: 23:00,                           !- Field 30
  0.1,                                    !- Field 31
  Until: 24:00,                           !- Field 32
  0,                                      !- Field 33
  For: Holidays,                          !- Field 34
  Until: 24:00,                           !- Field 35
  0,                                      !- Field 36
  For: WinterDesignDay AllOtherDays,      !- Field 37
  Until: 24:00,                           !- Field 38
  0;                                      !- Field 39

Schedule:Compact,
  Activity Schedule Bath,                 !- Name
  ActivityLevel,                          !- Schedule Type Limits Name
  Through: 12/31,                         !- Field 1
  For: AllDays,                           !- Field 2
  Until: 24:00,                           !- Field 3
  108;                                    !- Field 4

ScheduleTypeLimits,
  ActivityLevel,                          !- Name
  0,                                      !- Lower Limit Value {BasedOnField A3}
  ,                                       !- Upper Limit Value {BasedOnField A3}
  Continuous,                             !- Numeric Type
  activitylevel;                          !- Unit Type

Schedule:Compact,
  Work efficiency,                        !- Name
  Fractional,                             !- Schedule Type Limits Name
  Through: 12/31,                         !- Field 1
  For: AllDays,                           !- Field 2
  Until: 24:00,                           !- Field 3
  0;                                      !- Field 4

ScheduleTypeLimits,
  Fractional,                             !- Name
  0,                                      !- Lower Limit Value {BasedOnField A3}
  1,                                      !- Upper Limit Value {BasedOnField A3}
  Continuous;                             !- Numeric Type

Schedule:Compact,
  Clothing Schedule Bath,                 !- Name
  Any Number,                             !- Schedule Type Limits Name
  Through: 4/1,                           !- Field 1
  For: AllDays,                           !- Field 2
  Until: 24:00,                           !- Field 3
  .5,                                     !- Field 4
  Through: 9/30,                          !- Field 5
  For: AllDays,                           !- Field 6
  Until: 24:00,                           !- Field 7
  1,                                      !- Field 8
  Through: 12/31,                         !- Field 9
  For: AllDays,                           !- Field 10
  Until: 24:00,                           !- Field 11
  .5;                                     !- Field 12

ScheduleTypeLimits,
  Any Number;                             !- Name

Schedule:Compact,
  Air Velocity Others,                    !- Name
  ,                                       !- Schedule Type Limits Name
  Through: 12/31,                         !- Field 1
  For: AllDays,                           !- Field 2
  Until: 24:00,                           !- Field 3
  0.1370;                                 !- Field 4

ZoneInfiltration:DesignFlowRate,
  Bath Infiltration,                      !- Name
  Bath Space,                             !- Zone or ZoneList or Space or SpaceList Name