!-Generator IDFEditor 1.53
!-Option SortedOrder

!-NOTE: All comments with '!-' are ignored by the IDFEditor and are generated automatically.
!-      Use '!' comments if they need to be retained when using the IDFEditor.


!-   ===========  ALL OBJECTS IN CLASS: VERSION ===========

Version,
    23.1;                    !- Version Identifier


!-   ===========  ALL OBJECTS IN CLASS: SIMULATIONCONTROL ===========

SimulationControl,
    Yes,                     !- Do Zone Sizing Calculation
    Yes,                     !- Do System Sizing Calculation
    Yes,                     !- Do Plant Sizing Calculation
    No,                      !- Run Simulation for Sizing Periods
    Yes,                     !- Run Simulation for Weather File Run Periods
    No,                      !- Do HVAC Sizing Simulation for Sizing Periods
    ;                        !- Maximum Number of HVAC Sizing Simulation Passes


!-   ===========  ALL OBJECTS IN CLASS: BUILDING ===========

Building,
    Building,                !- Name
    north_axis[],                       !- North Axis {deg}
    Suburbs,                 !- Terrain
    0.04,                    !- Loads Convergence Tolerance Value {W}
    0.4,                     !- Temperature Convergence Tolerance Value {deltaC}
    FullExterior,            !- Solar Distribution
    25,                      !- Maximum Number of Warmup Days
    6;                       !- Minimum Number of Warmup Days


!-   ===========  ALL OBJECTS IN CLASS: SHADOWCALCULATION ===========

ShadowCalculation,
    PolygonClipping,         !- Shading Calculation Method
    Periodic,                !- Shading Calculation Update Frequency Method
    20,                      !- Shading Calculation Update Frequency
    15000,                   !- Maximum Figures in Shadow Overlap Calculations
    SutherlandHodgman,       !- Polygon Clipping Algorithm
    512,                     !- Pixel Counting Resolution
    SimpleSkyDiffuseModeling,!- Sky Diffuse Modeling Algorithm
    No,                      !- Output External Shading Calculation Results
    No,                      !- Disable Self-Shading Within Shading Zone Groups
    No;                      !- Disable Self-Shading From Shading Zone Groups to Other Zones


!-   ===========  ALL OBJECTS IN CLASS: SURFACECONVECTIONALGORITHM:INSIDE ===========

SurfaceConvectionAlgorithm:Inside,
    TARP;                    !- Algorithm


!-   ===========  ALL OBJECTS IN CLASS: SURFACECONVECTIONALGORITHM:OUTSIDE ===========

SurfaceConvectionAlgorithm:Outside,
    DOE-2;                   !- Algorithm


!-   ===========  ALL OBJECTS IN CLASS: HEATBALANCEALGORITHM ===========

HeatBalanceAlgorithm,
    ConductionTransferFunction,  !- Algorithm
    2000,                    !- Surface Temperature Upper Limit {C}
    1e-08,                   !- Minimum Surface Convection Heat Transfer Coefficient Value {W/m2-K}
    1000;                    !- Maximum Surface Convection Heat Transfer Coefficient Value {W/m2-K}


!-   ===========  ALL OBJECTS IN CLASS: ZONEAIRHEATBALANCEALGORITHM ===========

ZoneAirHeatBalanceAlgorithm,
    ThirdOrderBackwardDifference,  !- Algorithm
    No,                      !- Do Space Heat Balance for Sizing
    No;                      !- Do Space Heat Balance for Simulation


!-   ===========  ALL OBJECTS IN CLASS: ZONEAIRCONTAMINANTBALANCE ===========

ZoneAirContaminantBalance,
    No;                      !- Carbon Dioxide Concentration


!-   ===========  ALL OBJECTS IN CLASS: ZONECAPACITANCEMULTIPLIER:RESEARCHSPECIAL ===========

ZoneCapacitanceMultiplier:ResearchSpecial,
    Zone Capacitance Multiplier Research Special,  !- Name
    ,                        !- Zone or ZoneList Name
    ,                        !- Temperature Capacity Multiplier
    ,                        !- Humidity Capacity Multiplier
    ,                        !- Carbon Dioxide Capacity Multiplier
    ;                        !- Generic Contaminant Capacity Multiplier


!-   ===========  ALL OBJECTS IN CLASS: TIMESTEP ===========

Timestep,
    6;                       !- Number of Timesteps per Hour


!-   ===========  ALL OBJECTS IN CLASS: CONVERGENCELIMITS ===========

ConvergenceLimits,
    1,                       !- Minimum System Timestep {minutes}
    25;                      !- Maximum HVAC Iterations


!-   ===========  ALL OBJECTS IN CLASS: RUNPERIOD ===========

RunPeriod,
    IDN-Res (01-01:31-12),   !- Name
    1,                       !- Begin Month
    1,                       !- Begin Day of Month
    2006,                    !- Begin Year
    12,                      !- End Month
    31,                      !- End Day of Month
    2006,                    !- End Year
    Sunday,                  !- Day of Week for Start Day
    No,                      !- Use Weather File Holidays and Special Days
    No,                      !- Use Weather File Daylight Saving Period
    Yes,                     !- Apply Weekend Holiday Rule
    Yes,                     !- Use Weather File Rain Indicators
    Yes;                     !- Use Weather File Snow Indicators


!-   ===========  ALL OBJECTS IN CLASS: RUNPERIODCONTROL:SPECIALDAYS ===========

RunPeriodControl:SpecialDays,
    Boxing Day,              !- Name
    26 Dec,                  !- Start Date
    1,                       !- Duration {days}
    Holiday;                 !- Special Day Type

RunPeriodControl:SpecialDays,
    Christmas Day,           !- Name
    25 Dec,                  !- Start Date
    1,                       !- Duration {days}
    Holiday;                 !- Special Day Type

RunPeriodControl:SpecialDays,
    Easter Monday,           !- Name
    2nd Monday in April,     !- Start Date
    1,                       !- Duration {days}
    Holiday;                 !- Special Day Type

RunPeriodControl:SpecialDays,
    Easter Sunday,           !- Name
    1st Sunday in April,     !- Start Date
    1,                       !- Duration {days}
    Holiday;                 !- Special Day Type

RunPeriodControl:SpecialDays,
    New Years Day,           !- Name
    1 Jan,                   !- Start Date
    1,                       !- Duration {days}
    Holiday;                 !- Special Day Type


!-   ===========  ALL OBJECTS IN CLASS: SCHEDULETYPELIMITS ===========

ScheduleTypeLimits,
    Fraction,                !- Name
    0,                       !- Lower Limit Value
    1,                       !- Upper Limit Value
    CONTINUOUS;              !- Numeric Type

ScheduleTypeLimits,
    ActivityLevel,           !- Name
    0,                       !- Lower Limit Value
    ,                        !- Upper Limit Value
    Continuous,              !- Numeric Type
    activitylevel;           !- Unit Type

ScheduleTypeLimits,
    Fractional,              !- Name
    0,                       !- Lower Limit Value
    1,                       !- Upper Limit Value
    Continuous;              !- Numeric Type

ScheduleTypeLimits,
    Any Number;              !- Name

ScheduleTypeLimits,
    Bedroom 1 Thermostat Schedule Type Limits,  !- Name
    0,                       !- Lower Limit Value
    4,                       !- Upper Limit Value
    DISCRETE;                !- Numeric Type

ScheduleTypeLimits,
    Temperature,             !- Name
    -60,                     !- Lower Limit Value
    200,                     !- Upper Limit Value
    CONTINUOUS,              !- Numeric Type
    temperature;             !- Unit Type

ScheduleTypeLimits,
    Bedroom 2 Thermostat Schedule Type Limits,  !- Name
    0,                       !- Lower Limit Value
    4,                       !- Upper Limit Value
    DISCRETE;                !- Numeric Type

ScheduleTypeLimits,
    Dimensionless,           !- Name
    ,                        !- Lower Limit Value
    ,                        !- Upper Limit Value
    Continuous;              !- Numeric Type

ScheduleTypeLimits,
    Fraction 1,              !- Name
    0,                       !- Lower Limit Value
    1,                       !- Upper Limit Value
    CONTINUOUS;              !- Numeric Type

ScheduleTypeLimits,
    On/Off,                  !- Name
    0,                       !- Lower Limit Value
    1,                       !- Upper Limit Value
    DISCRETE,                !- Numeric Type
    availability;            !- Unit Type

ScheduleTypeLimits,
    OnOff,                   !- Name
    0,                       !- Lower Limit Value
    1,                       !- Upper Limit Value
    Discrete,                !- Numeric Type
    availability;            !- Unit Type

ScheduleTypeLimits,
    OnOff 1,                 !- Name
    0,                       !- Lower Limit Value
    1,                       !- Upper Limit Value
    Discrete,                !- Numeric Type
    availability;            !- Unit Type

ScheduleTypeLimits,
    OnOff 2,                 !- Name
    0,                       !- Lower Limit Value
    1,                       !- Upper Limit Value
    Discrete,                !- Numeric Type
    availability;            !- Unit Type

ScheduleTypeLimits,
    OnOff hvac_library,      !- Name
    0,                       !- Lower Limit Value
    1,                       !- Upper Limit Value
    Discrete,                !- Numeric Type
    availability;            !- Unit Type

ScheduleTypeLimits,
    Schedule Type Limits 1;  !- Name

ScheduleTypeLimits,
    Schedule Type Limits 10; !- Name

ScheduleTypeLimits,
    Schedule Type Limits 11; !- Name

ScheduleTypeLimits,
    Schedule Type Limits 12; !- Name

ScheduleTypeLimits,
    Schedule Type Limits 13; !- Name

ScheduleTypeLimits,
    Schedule Type Limits 14; !- Name

ScheduleTypeLimits,
    Schedule Type Limits 15; !- Name

ScheduleTypeLimits,
    Schedule Type Limits 16; !- Name

ScheduleTypeLimits,
    Schedule Type Limits 18; !- Name

ScheduleTypeLimits,
    Schedule Type Limits 19; !- Name

ScheduleTypeLimits,
    Schedule Type Limits 2;  !- Name

ScheduleTypeLimits,
    Schedule Type Limits 20; !- Name

ScheduleTypeLimits,
    Schedule Type Limits 21; !- Name

ScheduleTypeLimits,
    Schedule Type Limits 22; !- Name

ScheduleTypeLimits,
    Schedule Type Limits 23; !- Name

ScheduleTypeLimits,
    Schedule Type Limits 24; !- Name

ScheduleTypeLimits,
    Schedule Type Limits 25; !- Name

ScheduleTypeLimits,
    Schedule Type Limits 26; !- Name

ScheduleTypeLimits,
    Schedule Type Limits 4;  !- Name

ScheduleTypeLimits,
    Schedule Type Limits 5;  !- Name

ScheduleTypeLimits,
    Schedule Type Limits 6;  !- Name

ScheduleTypeLimits,
    Schedule Type Limits 7;  !- Name

ScheduleTypeLimits,
    Schedule Type Limits 8;  !- Name

ScheduleTypeLimits,
    Schedule Type Limits 9;  !- Name

ScheduleTypeLimits,
    Velocity,                !- Name
    0,                       !- Lower Limit Value
    ,                        !- Upper Limit Value
    Continuous,              !- Numeric Type
    velocity;                !- Unit Type


!-   ===========  ALL OBJECTS IN CLASS: SCHEDULE:COMPACT ===========

Schedule:Compact,
    Ltg-Sch-Bath,            !- Name
    Fraction,                !- Schedule Type Limits Name
    Through: 31 Dec,         !- Field 1
    For: Weekdays SummerDesignDay,  !- Field 2
    Until: 07:00,            !- Field 3
    0,                       !- Field 4
    Until: 09:00,            !- Field 5
    1,                       !- Field 6
    Until: 18:00,            !- Field 7
    0,                       !- Field 8
    Until: 23:00,            !- Field 9
    1,                       !- Field 10
    Until: 24:00,            !- Field 11
    0,                       !- Field 12
    For: Weekends,           !- Field 13
    Until: 09:00,            !- Field 14
    0,                       !- Field 15
    Until: 10:00,            !- Field 16
    1,                       !- Field 17
    Until: 12:00,            !- Field 18
    0,                       !- Field 19
    Until: 13:00,            !- Field 20
    1,                       !- Field 21
    Until: 15:00,            !- Field 22
    0,                       !- Field 23
    Until: 16:00,            !- Field 24
    1,                       !- Field 25
    Until: 18:00,            !- Field 26
    0,                       !- Field 27
    Until: 23:00,            !- Field 28
    1,                       !- Field 29
    Until: 24:00,            !- Field 30
    0,                       !- Field 31
    For: Holidays,           !- Field 32
    Until: 24:00,            !- Field 33
    0,                       !- Field 34
    For: WinterDesignDay AllOtherDays,  !- Field 35
    Until: 24:00,            !- Field 36
    0;                       !- Field 37

Schedule:Compact,
    Occ-Sch-Bath,            !- Name
    Fraction,                !- Schedule Type Limits Name
    Through: 31 Dec,         !- Field 1
    For: Weekdays SummerDesignDay,  !- Field 2
    Until: 07:00,            !- Field 3
    0,                       !- Field 4
    Until: 09:00,            !- Field 5
    0.1,                     !- Field 6
    Until: 18:00,            !- Field 7
    0,                       !- Field 8
    Until: 22:00,            !- Field 9
    0.1,                     !- Field 10
    Until: 23:00,            !- Field 11
    0.05,                    !- Field 12
    Until: 24:00,            !- Field 13
    0,                       !- Field 14
    For: Weekends,           !- Field 15
    Until: 09:00,            !- Field 16
    0,                       !- Field 17
    Until: 10:00,            !- Field 18
    0.1,                     !- Field 19
    Until: 12:00,            !- Field 20
    0,                       !- Field 21
    Until: 13:00,            !- Field 22
    0.1,                     !- Field 23
    Until: 15:00,            !- Field 24
    0,                       !- Field 25
    Until: 16:00,            !- Field 26
    0.1,                     !- Field 27
    Until: 18:00,            !- Field 28
    0,                       !- Field 29
    Until: 23:00,            !- Field 30
    0.1,                     !- Field 31
    Until: 24:00,            !- Field 32
    0,                       !- Field 33
    For: Holidays,           !- Field 34
    Until: 24:00,            !- Field 35
    0,                       !- Field 36
    For: WinterDesignDay AllOtherDays,  !- Field 37
    Until: 24:00,            !- Field 38
    0;                       !- Field 39

Schedule:Compact,
    Activity Schedule Bath,  !- Name
    ActivityLevel,           !- Schedule Type Limits Name
    Through: 12/31,          !- Field 1
    For: AllDays,            !- Field 2
    Until: 24:00,            !- Field 3
    108;                     !- Field 4

Schedule:Compact,
    Work efficiency,         !- Name
    Fractional,              !- Schedule Type Limits Name
    Through: 12/31,          !- Field 1
    For: AllDays,            !- Field 2
    Until: 24:00,            !- Field 3
    0;                       !- Field 4

Schedule:Compact,
    Clothing Schedule Bath,  !- Name
    Any Number,              !- Schedule Type Limits Name
    Through: 4/1,            !- Field 1
    For: AllDays,            !- Field 2
    Until: 24:00,            !- Field 3
    .5,                      !- Field 4
    Through: 9/30,           !- Field 5
    For: AllDays,            !- Field 6
    Until: 24:00,            !- Field 7
    1,                       !- Field 8
    Through: 12/31,          !- Field 9
    For: AllDays,            !- Field 10
    Until: 24:00,            !- Field 11
    .5;                      !- Field 12

Schedule:Compact,
    Air Velocity Others,     !- Name
    Any Number,                        !- Schedule Type Limits Name
    Through: 12/31,          !- Field 1
    For: AllDays,            !- Field 2
    Until: 24:00,            !- Field 3
    0.1370;                  !- Field 4

Schedule:Compact,
    Air Velocity Kitchen,     !- Name
    Any Number,                        !- Schedule Type Limits Name
    Through: 12/31,          !- Field 1
    For: AllDays,            !- Field 2
    Until: 24:00,            !- Field 3
    air_speed[];                  !- Field 4

Schedule:Compact,
    Ltg-Sch-Bedroom,         !- Name
    Fraction,                !- Schedule Type Limits Name
    Through: 31 Dec,         !- Field 1
    For: Weekdays,           !- Field 2
    Until: 06:00,            !- Field 3
    0.00,                    !- Field 4
    Until: 22:00,            !- Field 5
    1.00,                    !- Field 6
    Until: 23:00,            !- Field 7
    0.80,                    !- Field 8
    Until: 24:00,            !- Field 9
    0.20,                    !- Field 10
    For: Saturday,           !- Field 11
    Until: 07:00,            !- Field 12
    0.00,                    !- Field 13
    Until: 22:00,            !- Field 14
    1.00,                    !- Field 15
    Until: 23:00,            !- Field 16
    0.80,                    !- Field 17
    Until: 24:00,            !- Field 18
    0.20,                    !- Field 19
    For: Sunday Holidays,    !- Field 20
    Until: 07:00,            !- Field 21
    0.00,                    !- Field 22
    Until: 22:00,            !- Field 23
    1.00,                    !- Field 24
    Until: 23:00,            !- Field 25
    0.80,                    !- Field 26
    Until: 24:00,            !- Field 27
    0.20,                    !- Field 28
    For: SummerDesignDay,    !- Field 29
    Until: 24:00,            !- Field 30
    1,                       !- Field 31
    For: AllOtherDays,       !- Field 32
    Until: 24:00,            !- Field 33
    0;                       !- Field 34

Schedule:Compact,
    Occ-Sch-Bedroom,         !- Name
    Fraction,                !- Schedule Type Limits Name
    Through: 31 Dec,         !- Field 1
    For: Weekdays,           !- Field 2
    Until: 05:00,            !- Field 3
    1.00,                    !- Field 4
    Until: 06:00,            !- Field 5
    0.80,                    !- Field 6
    Until: 08:00,            !- Field 7
    0.75,                    !- Field 8
    Until: 09:00,            !- Field 9
    0.50,                    !- Field 10
    Until: 15:00,            !- Field 11
    0.43,                    !- Field 12
    Until: 18:00,            !- Field 13
    0.50,                    !- Field 14
    Until: 21:00,            !- Field 15
    0.75,                    !- Field 16
    Until: 24:00,            !- Field 17
    0.80,                    !- Field 18
    For: Saturday,           !- Field 19
    Until: 07:00,            !- Field 20
    1.00,                    !- Field 21
    Until: 08:00,            !- Field 22
    0.80,                    !- Field 23
    Until: 09:00,            !- Field 24
    0.75,                    !- Field 25
    Until: 10:00,            !- Field 26
    0.50,                    !- Field 27
    Until: 15:00,            !- Field 28
    0.43,                    !- Field 29
    Until: 18:00,            !- Field 30
    0.50,                    !- Field 31
    Until: 21:00,            !- Field 32
    0.75,                    !- Field 33
    Until: 24:00,            !- Field 34
    0.80,                    !- Field 35
    For: Sunday Holidays,    !- Field 36
    Until: 07:00,            !- Field 37
    1.00,                    !- Field 38
    Until: 08:00,            !- Field 39
    0.80,                    !- Field 40
    Until: 09:00,            !- Field 41
    0.75,                    !- Field 42
    Until: 10:00,            !- Field 43
    0.50,                    !- Field 44
    Until: 15:00,            !- Field 45
    0.43,                    !- Field 46
    Until: 18:00,            !- Field 47
    0.50,                    !- Field 48
    Until: 21:00,            !- Field 49
    0.75,                    !- Field 50
    Until: 24:00,            !- Field 51
    0.80,                    !- Field 52
    For: SummerDesignDay,    !- Field 53
    Until: 24:00,            !- Field 54
    1,                       !- Field 55
    For: AllOtherDays,       !- Field 56
    Until: 24:00,            !- Field 57
    0;                       !- Field 58

Schedule:Compact,
    Activity Schedule Bedroom,  !- Name
    ActivityLevel,           !- Schedule Type Limits Name
    Through: 12/31,          !- Field 1
    For: AllDays,            !- Field 2
    Until: 24:00,            !- Field 3
    72;                      !- Field 4

Schedule:Compact,
    Clothing Schedule Bedroom,  !- Name
    Any Number,              !- Schedule Type Limits Name
    Through: 4/1,            !- Field 1
    For: AllDays,            !- Field 2
    Until: 24:00,            !- Field 3
    .5,                      !- Field 4
    Through: 9/30,           !- Field 5
    For: AllDays,            !- Field 6
    Until: 24:00,            !- Field 7
    1,                       !- Field 8
    Through: 12/31,          !- Field 9
    For: AllDays,            !- Field 10
    Until: 24:00,            !- Field 11
    .5;                      !- Field 12

Schedule:Compact,
    Air Velocity Bedroom 1,    !- Name
    Any Number,                        !- Schedule Type Limits Name
    Through: 12/31,          !- Field 1
    For: AllDays,            !- Field 2
    Until: 24:00,            !- Field 3
    air_speed[];                  !- Field 4

Schedule:Compact,
    Air Velocity Bedroom 2,    !- Name
    Any Number,                        !- Schedule Type Limits Name
    Through: 12/31,          !- Field 1
    For: AllDays,            !- Field 2
    Until: 24:00,            !- Field 3
    air_speed[];             !- Field 4

Schedule:Compact,
    Equip-Sch-Bedroom,       !- Name
    Fraction,                !- Schedule Type Limits Name
    Through: 31 Dec,         !- Field 1
    For: Weekdays SummerDesignDay,  !- Field 2
    Until: 07:00,            !- Field 3
    0.05,                    !- Field 4
    Until: 09:00,            !- Field 5
    1,                       !- Field 6
    Until: 18:00,            !- Field 7
    0.05,                    !- Field 8
    Until: 23:00,            !- Field 9
    1,                       !- Field 10
    Until: 24:00,            !- Field 11
    0.05,                    !- Field 12
    For: Weekends,           !- Field 13
    Until: 07:00,            !- Field 14
    0.05,                    !- Field 15
    Until: 09:00,            !- Field 16
    1,                       !- Field 17
    Until: 18:00,            !- Field 18
    0.05,                    !- Field 19
    Until: 23:00,            !- Field 20
    1,                       !- Field 21
    Until: 24:00,            !- Field 22
    0.05,                    !- Field 23
    For: Holidays,           !- Field 24
    Until: 24:00,            !- Field 25
    0.05,                    !- Field 26
    For: WinterDesignDay AllOtherDays,  !- Field 27
    Until: 24:00,            !- Field 28
    0;                       !- Field 29

Schedule:Compact,
    Bedroom 1 Thermostat Schedule,  !- Name
    Bedroom 1 Thermostat Schedule Type Limits,  !- Schedule Type Limits Name
    Through: 12/31,          !- Field 1
    For: AllDays,            !- Field 2
    Until: 24:00,            !- Field 3
    4;                       !- Field 4

Schedule:Compact,
    heating_sch,             !- Name
    Temperature,             !- Schedule Type Limits Name
    Through: 12/31,          !- Field 1
    For: AllDays,            !- Field 2
    Until: 24:00,            !- Field 3
    -50;                     !- Field 4

Schedule:Compact,
    cooling_sch,             !- Name
    Temperature,             !- Schedule Type Limits Name
    Through: 12/31,          !- Field 1
    For: SummerDesignDay,    !- Field 2
    Until: 24:00,            !- Field 3
    25,                      !- Field 4
    For: AllOtherDays,       !- Field 5
    Until: 5:30,             !- Field 6
    clg_sept[],                      !- Field 7
    Until: 21:00,            !- Field 8
    30,                      !- Field 9
    Until: 24:00,            !- Field 10
    clg_sept[];                      !- Field 11

Schedule:Compact,
    Bedroom 2 Thermostat Schedule,  !- Name
    Bedroom 2 Thermostat Schedule Type Limits,  !- Schedule Type Limits Name
    Through: 12/31,          !- Field 1
    For: AllDays,            !- Field 2
    Until: 24:00,            !- Field 3
    4;                       !- Field 4

Schedule:Compact,
    Living Room Thermostat Schedule,  !- Name
    Bedroom 2 Thermostat Schedule Type Limits,  !- Schedule Type Limits Name
    Through: 12/31,          !- Field 1
    For: AllDays,            !- Field 2
    Until: 24:00,            !- Field 3
    4;                       !- Field 4


Schedule:Compact,
    Kitchen Thermostat Schedule,  !- Name
    Bedroom 2 Thermostat Schedule Type Limits,  !- Schedule Type Limits Name
    Through: 12/31,          !- Field 1
    For: AllDays,            !- Field 2
    Until: 24:00,            !- Field 3
    4;                       !- Field 4

Schedule:Compact,
    Ltg-Sch-Kitchen,         !- Name
    Fraction,                !- Schedule Type Limits Name
    Through: 31 Dec,         !- Field 1
    For: Weekdays SummerDesignDay,  !- Field 2
    Until: 18:00,            !- Field 3
    0,                       !- Field 4
    Until: 23:00,            !- Field 5
    1,                       !- Field 6
    Until: 24:00,            !- Field 7
    0,                       !- Field 8
    For: Weekends,           !- Field 9
    Until: 10:00,            !- Field 10
    0,                       !- Field 11
    Until: 24:00,            !- Field 12
    1,                       !- Field 13
    For: Holidays,           !- Field 14
    Until: 24:00,            !- Field 15
    0,                       !- Field 16
    For: WinterDesignDay AllOtherDays,  !- Field 17
    Until: 24:00,            !- Field 18
    0;                       !- Field 19

Schedule:Compact,
    Occ-Sch-Kitchen,         !- Name
    Fraction,                !- Schedule Type Limits Name
    Through: 31 Dec,         !- Field 1
    For: Weekdays SummerDesignDay,  !- Field 2
    Until: 05:00,            !- Field 3
    0,                       !- Field 4
    Until: 07:00,            !- Field 5
    0.05,                    !- Field 6
    Until: 08:00,            !- Field 7
    0.1,                     !- Field 8
    Until: 09:00,            !- Field 9
    0.2,                     !- Field 10
    Until: 10:00,            !- Field 11
    0.1,                     !- Field 12
    Until: 16:00,            !- Field 13
    0.05,                    !- Field 14
    Until: 23:00,            !- Field 15
    0.1,                     !- Field 16
    Until: 24:00,            !- Field 17
    0.05,                    !- Field 18
    For: Weekends,           !- Field 19
    Until: 07:00,            !- Field 20
    0,                       !- Field 21
    Until: 09:00,            !- Field 22
    0.05,                    !- Field 23
    Until: 23:00,            !- Field 24
    0.1,                     !- Field 25
    Until: 24:00,            !- Field 26
    0.05,                    !- Field 27
    For: Holidays,           !- Field 28
    Until: 07:00,            !- Field 29
    0,                       !- Field 30
    Until: 09:00,            !- Field 31
    0.05,                    !- Field 32
    Until: 23:00,            !- Field 33
    0.1,                     !- Field 34
    Until: 24:00,            !- Field 35
    0.05,                    !- Field 36
    For: WinterDesignDay AllOtherDays,  !- Field 37
    Until: 24:00,            !- Field 38
    0;                       !- Field 39

Schedule:Compact,
    Activity Schedule Kitchen,  !- Name
    ActivityLevel,           !- Schedule Type Limits Name
    Through: 12/31,          !- Field 1
    For: AllDays,            !- Field 2
    Until: 24:00,            !- Field 3
    117;                     !- Field 4

Schedule:Compact,
    Clothing Schedule Kitchen,  !- Name
    Any Number,              !- Schedule Type Limits Name
    Through: 4/1,            !- Field 1
    For: AllDays,            !- Field 2
    Until: 24:00,            !- Field 3
    .5,                      !- Field 4
    Through: 9/30,           !- Field 5
    For: AllDays,            !- Field 6
    Until: 24:00,            !- Field 7
    1,                       !- Field 8
    Through: 12/31,          !- Field 9
    For: AllDays,            !- Field 10
    Until: 24:00,            !- Field 11
    .5;                      !- Field 12

Schedule:Compact,
    Equip-Sch-Kitchen,       !- Name
    Fraction,                !- Schedule Type Limits Name
    Through: 31 Dec,         !- Field 1
    For: AllDays,            !- Field 2
    Until: 01:00,            !- Field 3
    0.8,                     !- Field 4
    Until: 02:00,            !- Field 5
    0.782696177062374,       !- Field 6
    Until: 03:00,            !- Field 7
    0.765593561368209,       !- Field 8
    Until: 04:00,            !- Field 9
    0.742857142857143,       !- Field 10
    Until: 05:00,            !- Field 11
    0.731388329979879,       !- Field 12
    Until: 06:00,            !- Field 13
    0.731388329979879,       !- Field 14
    Until: 07:00,            !- Field 15
    0.759959758551308,       !- Field 16
    Until: 08:00,            !- Field 17
    0.8,                     !- Field 18
    Until: 09:00,            !- Field 19
    0.817102615694165,       !- Field 20
    Until: 10:00,            !- Field 21
    0.828571428571429,       !- Field 22
    Until: 11:00,            !- Field 23
    0.8,                     !- Field 24
    Until: 12:00,            !- Field 25
    0.8,                     !- Field 26
    Until: 13:00,            !- Field 27
    0.839839034205231,       !- Field 28
    Until: 14:00,            !- Field 29
    0.839839034205231,       !- Field 30
    Until: 15:00,            !- Field 31
    0.828571428571429,       !- Field 32
    Until: 16:00,            !- Field 33
    0.839839034205231,       !- Field 34
    Until: 17:00,            !- Field 35
    0.885714285714286,       !- Field 36